/*--------------------------------*- C++ -*----------------------------------*\
| =========                 |                                                 |
| \\      /  F ield         | OpenFOAM: The Open Source CFD Toolbox           |
|  \\    /   O peration     | Version:  v1906                                 |
|   \\  /    A nd           | Web:      www.OpenFOAM.com                      |
|    \\/     M anipulation  |                                                 |
\*---------------------------------------------------------------------------*/
FoamFile
{
    version     2.0;
    format      ascii;
    class       featureEdgeMesh;
    location    "constant/triSurface";
    object      cylinder.eMesh;
}
// * * * * * * * * * * * * * * * * * * * * * * * * * * * * * * * * * * * * * //


// points:

74
(
(0.495 0.30000001 -0.075000003)
(0.495076 0.30086821 0.075000003)
(0.495076 0.30086821 -0.075000003)
(0.49530151 0.3017101 0.075000003)
(0.49530151 0.3017101 -0.075000003)
(0.4956699 0.30250001 0.075000003)
(0.4956699 0.30250001 -0.075000003)
(0.49616981 0.30321389 0.075000003)
(0.49616981 0.30321389 -0.075000003)
(0.49678609 0.30383021 0.075000003)
(0.49678609 0.30383021 -0.075000003)
(0.4975 0.30433011 0.075000003)
(0.4975 0.30433011 -0.075000003)
(0.49828991 0.3046985 0.075000003)
(0.49828991 0.3046985 -0.075000003)
(0.4991318 0.30492401 0.075000003)
(0.4991318 0.30492401 -0.075000003)
(0.5 0.30500001 0.075000003)
(0.5 0.30500001 -0.075000003)
(0.50086832 0.30492401 0.075000003)
(0.50086832 0.30492401 -0.075000003)
(0.50171012 0.3046985 0.075000003)
(0.50171012 0.3046985 -0.075000003)
(0.5025 0.30433011 0.075000003)
(0.5025 0.30433011 -0.075000003)
(0.50321388 0.30383021 0.075000003)
(0.50321388 0.30383021 -0.075000003)
(0.50383019 0.30321389 0.075000003)
(0.50383019 0.30321389 -0.075000003)
(0.5043301 0.30250001 0.075000003)
(0.5043301 0.30250001 -0.075000003)
(0.50469851 0.3017101 0.075000003)
(0.50469851 0.3017101 -0.075000003)
(0.50492412 0.30086821 0.075000003)
(0.50492412 0.30086821 -0.075000003)
(0.505 0.30000001 0.075000003)
(0.505 0.30000001 -0.075000003)
(0.50492412 0.29913181 0.075000003)
(0.50492412 0.29913181 -0.075000003)
(0.50469851 0.2982899 0.075000003)
(0.50469851 0.2982899 -0.075000003)
(0.5043301 0.29750001 0.075000003)
(0.5043301 0.29750001 -0.075000003)
(0.50383019 0.2967861 0.075000003)
(0.50383019 0.2967861 -0.075000003)
(0.50321388 0.29616979 0.075000003)
(0.50321388 0.29616979 -0.075000003)
(0.5025 0.29566991 0.075000003)
(0.5025 0.29566991 -0.075000003)
(0.50171012 0.2953015 0.075000003)
(0.50171012 0.2953015 -0.075000003)
(0.50086832 0.29507601 0.075000003)
(0.50086832 0.29507601 -0.075000003)
(0.5 0.29499999 0.075000003)
(0.5 0.29499999 -0.075000003)
(0.4991318 0.29507601 0.075000003)
(0.4991318 0.29507601 -0.075000003)
(0.49828991 0.2953015 0.075000003)
(0.49828991 0.2953015 -0.075000003)
(0.4975 0.29566991 0.075000003)
(0.4975 0.29566991 -0.075000003)
(0.49678609 0.29616979 0.075000003)
(0.49678609 0.29616979 -0.075000003)
(0.49616981 0.2967861 0.075000003)
(0.49616981 0.2967861 -0.075000003)
(0.4956699 0.29750001 0.075000003)
(0.4956699 0.29750001 -0.075000003)
(0.49530151 0.2982899 0.075000003)
(0.49530151 0.2982899 -0.075000003)
(0.495076 0.29913181 0.075000003)
(0.495076 0.29913181 -0.075000003)
(0.495 0.30000001 0.075000003)
(0.5 0.30000001 0.075000003)
(0.5 0.30000001 -0.075000003)
)


// edges:

216
(
(1 2)
(2 0)
(1 3)
(3 4)
(4 2)
(3 5)
(5 6)
(6 4)
(5 7)
(7 8)
(8 6)
(7 9)
(9 10)
(10 8)
(9 11)
(11 12)
(12 10)
(11 13)
(13 14)
(14 12)
(13 15)
(15 16)
(16 14)
(15 17)
(17 18)
(18 16)
(17 19)
(19 20)
(20 18)
(19 21)
(21 22)
(22 20)
(21 23)
(23 24)
(24 22)
(23 25)
(25 26)
(26 24)
(25 27)
(27 28)
(28 26)
(27 29)
(29 30)
(30 28)
(29 31)
(31 32)
(32 30)
(31 33)
(33 34)
(34 32)
(33 35)
(35 36)
(36 34)
(35 37)
(37 38)
(38 36)
(37 39)
(39 40)
(40 38)
(39 41)
(41 42)
(42 40)
(41 43)
(43 44)
(44 42)
(43 45)
(45 46)
(46 44)
(45 47)
(47 48)
(48 46)
(47 49)
(49 50)
(50 48)
(49 51)
(51 52)
(52 50)
(51 53)
(53 54)
(54 52)
(53 55)
(55 56)
(56 54)
(55 57)
(57 58)
(58 56)
(57 59)
(59 60)
(60 58)
(59 61)
(61 62)
(62 60)
(61 63)
(63 64)
(64 62)
(63 65)
(65 66)
(66 64)
(65 67)
(67 68)
(68 66)
(67 69)
(69 70)
(70 68)
(69 71)
(71 0)
(0 70)
(71 1)
(3 2)
(5 4)
(7 6)
(21 20)
(23 22)
(27 26)
(29 28)
(33 32)
(37 36)
(41 40)
(47 46)
(49 48)
(55 54)
(63 62)
(0 1)
(9 8)
(11 10)
(13 12)
(15 14)
(17 16)
(19 18)
(25 24)
(31 30)
(35 34)
(39 38)
(43 42)
(45 44)
(51 50)
(53 52)
(57 56)
(59 58)
(61 60)
(65 64)
(67 66)
(69 68)
(71 70)
(37 72)
(72 39)
(35 72)
(33 72)
(43 72)
(72 45)
(41 72)
(49 72)
(72 51)
(47 72)
(55 72)
(72 57)
(53 72)
(61 72)
(72 63)
(59 72)
(67 72)
(72 69)
(65 72)
(1 72)
(72 3)
(71 72)
(7 72)
(72 9)
(5 72)
(13 72)
(72 15)
(11 72)
(19 72)
(72 21)
(17 72)
(25 72)
(72 27)
(23 72)
(31 72)
(29 72)
(34 73)
(73 32)
(36 73)
(38 73)
(28 73)
(73 26)
(30 73)
(22 73)
(73 20)
(24 73)
(16 73)
(73 14)
(18 73)
(10 73)
(73 8)
(12 73)
(4 73)
(73 2)
(6 73)
(70 73)
(73 68)
(0 73)
(64 73)
(73 62)
(66 73)
(58 73)
(73 56)
(60 73)
(52 73)
(73 50)
(54 73)
(46 73)
(73 44)
(48 73)
(40 73)
(42 73)
)

// * * * * * * * * * * * * * * * * * * * * * * * * * * * * * * * * * * * * * //


// ************************************************************************* //
