/*--------------------------------*- C++ -*----------------------------------*\
| =========                 |                                                 |
| \\      /  F ield         | OpenFOAM: The Open Source CFD Toolbox           |
|  \\    /   O peration     | Version:  v1906                                 |
|   \\  /    A nd           | Web:      www.OpenFOAM.com                      |
|    \\/     M anipulation  |                                                 |
\*---------------------------------------------------------------------------*/
FoamFile
{
    version     2.0;
    format      ascii;
    class       featureEdgeMesh;
    location    "constant/triSurface";
    object      elipse.eMesh;
}
// * * * * * * * * * * * * * * * * * * * * * * * * * * * * * * * * * * * * * //


// points:

1440
(
(0.51160139 0.30093071 0.075000003)
(0.51156539 0.3009485 -0.075000003)
(0.51156539 0.3009485 0.075000003)
(0.5115276 0.30096671 -0.075000003)
(0.5115276 0.30096671 0.075000003)
(0.51148802 0.3009854 -0.075000003)
(0.51148802 0.3009854 0.075000003)
(0.51144618 0.30100459 -0.075000003)
(0.51144618 0.30100459 0.075000003)
(0.51140243 0.30102441 -0.075000003)
(0.51140243 0.30102441 0.075000003)
(0.51135629 0.3010447 -0.075000003)
(0.51135629 0.3010447 0.075000003)
(0.51130772 0.30106559 -0.075000003)
(0.51130772 0.30106559 0.075000003)
(0.51125652 0.30108699 -0.075000003)
(0.51125652 0.30108699 0.075000003)
(0.51120257 0.30110911 -0.075000003)
(0.51120257 0.30110911 0.075000003)
(0.51114571 0.30113181 -0.075000003)
(0.51114571 0.30113181 0.075000003)
(0.51108563 0.30115509 -0.075000003)
(0.51108563 0.30115509 0.075000003)
(0.51102221 0.3011792 -0.075000003)
(0.51102221 0.3011792 0.075000003)
(0.51095498 0.30120391 -0.075000003)
(0.51095498 0.30120391 0.075000003)
(0.51088399 0.30122939 -0.075000003)
(0.51088399 0.30122939 0.075000003)
(0.51080889 0.30125561 -0.075000003)
(0.51080889 0.30125561 0.075000003)
(0.51072937 0.3012827 -0.075000003)
(0.51072937 0.3012827 0.075000003)
(0.51064497 0.30131051 -0.075000003)
(0.51064497 0.30131051 0.075000003)
(0.51055551 0.30133909 -0.075000003)
(0.51055551 0.30133909 0.075000003)
(0.51046062 0.30136859 -0.075000003)
(0.51046062 0.30136859 0.075000003)
(0.5103597 0.30139899 -0.075000003)
(0.5103597 0.30139899 0.075000003)
(0.51025248 0.3014302 -0.075000003)
(0.51025248 0.3014302 0.075000003)
(0.51013851 0.30146229 -0.075000003)
(0.51013851 0.30146229 0.075000003)
(0.51001722 0.3014954 -0.075000003)
(0.51001722 0.3014954 0.075000003)
(0.50988811 0.30152941 -0.075000003)
(0.50988811 0.30152941 0.075000003)
(0.5097506 0.30156431 -0.075000003)
(0.5097506 0.30156431 0.075000003)
(0.50960398 0.30160019 -0.075000003)
(0.50960398 0.30160019 0.075000003)
(0.50944787 0.3016369 -0.075000003)
(0.50944787 0.3016369 0.075000003)
(0.50928128 0.3016746 -0.075000003)
(0.50928128 0.3016746 0.075000003)
(0.50910372 0.3017132 -0.075000003)
(0.50910372 0.3017132 0.075000003)
(0.50891411 0.3017526 -0.075000003)
(0.50891411 0.3017526 0.075000003)
(0.50871199 0.3017928 -0.075000003)
(0.50871199 0.3017928 0.075000003)
(0.5084964 0.30183369 -0.075000003)
(0.5084964 0.30183369 0.075000003)
(0.50826651 0.30187529 -0.075000003)
(0.50826651 0.30187529 0.075000003)
(0.50802141 0.3019174 -0.075000003)
(0.50802141 0.3019174 0.075000003)
(0.50776029 0.3019599 -0.075000003)
(0.50776029 0.3019599 0.075000003)
(0.50748241 0.30200261 -0.075000003)
(0.50748241 0.30200261 0.075000003)
(0.50718677 0.30204549 -0.075000003)
(0.50718677 0.30204549 0.075000003)
(0.50687289 0.3020882 -0.075000003)
(0.50687289 0.3020882 0.075000003)
(0.50653988 0.30213049 -0.075000003)
(0.50653988 0.30213049 0.075000003)
(0.50618738 0.30217221 -0.075000003)
(0.50618738 0.30217221 0.075000003)
(0.50581503 0.30221301 -0.075000003)
(0.50581503 0.30221301 0.075000003)
(0.50542241 0.3022525 -0.075000003)
(0.50542241 0.3022525 0.075000003)
(0.50500971 0.30229041 -0.075000003)
(0.50500971 0.30229041 0.075000003)
(0.50457722 0.30232641 -0.075000003)
(0.50457722 0.30232641 0.075000003)
(0.50412548 0.30235991 -0.075000003)
(0.50412548 0.30235991 0.075000003)
(0.50365561 0.30239069 -0.075000003)
(0.50365561 0.30239069 0.075000003)
(0.50316852 0.30241841 -0.075000003)
(0.50316852 0.30241841 0.075000003)
(0.502666 0.30244249 -0.075000003)
(0.502666 0.30244249 0.075000003)
(0.50215 0.3024627 -0.075000003)
(0.50215 0.3024627 0.075000003)
(0.5016228 0.30247879 -0.075000003)
(0.5016228 0.30247879 0.075000003)
(0.50108677 0.3024905 -0.075000003)
(0.50108677 0.3024905 0.075000003)
(0.50054491 0.3024976 -0.075000003)
(0.50054491 0.3024976 0.075000003)
(0.5 0.30250001 -0.075000003)
(0.5 0.30250001 0.075000003)
(0.49945509 0.3024976 -0.075000003)
(0.49945509 0.3024976 0.075000003)
(0.4989132 0.3024905 -0.075000003)
(0.4989132 0.3024905 0.075000003)
(0.4983772 0.30247879 -0.075000003)
(0.4983772 0.30247879 0.075000003)
(0.49785 0.3024627 -0.075000003)
(0.49785 0.3024627 0.075000003)
(0.497334 0.30244249 -0.075000003)
(0.497334 0.30244249 0.075000003)
(0.49683151 0.30241841 -0.075000003)
(0.49683151 0.30241841 0.075000003)
(0.49634439 0.30239069 -0.075000003)
(0.49634439 0.30239069 0.075000003)
(0.49587449 0.30235991 -0.075000003)
(0.49587449 0.30235991 0.075000003)
(0.49542281 0.30232641 -0.075000003)
(0.49542281 0.30232641 0.075000003)
(0.49499029 0.30229041 -0.075000003)
(0.49499029 0.30229041 0.075000003)
(0.49457759 0.3022525 -0.075000003)
(0.49457759 0.3022525 0.075000003)
(0.49418509 0.30221301 -0.075000003)
(0.49418509 0.30221301 0.075000003)
(0.49381259 0.30217221 -0.075000003)
(0.49381259 0.30217221 0.075000003)
(0.49346009 0.30213049 -0.075000003)
(0.49346009 0.30213049 0.075000003)
(0.49312711 0.3020882 -0.075000003)
(0.49312711 0.3020882 0.075000003)
(0.4928132 0.30204549 -0.075000003)
(0.4928132 0.30204549 0.075000003)
(0.49251759 0.30200261 -0.075000003)
(0.49251759 0.30200261 0.075000003)
(0.49223971 0.3019599 -0.075000003)
(0.49223971 0.3019599 0.075000003)
(0.49197859 0.3019174 -0.075000003)
(0.49197859 0.3019174 0.075000003)
(0.49173349 0.30187529 -0.075000003)
(0.49173349 0.30187529 0.075000003)
(0.4915036 0.30183369 -0.075000003)
(0.4915036 0.30183369 0.075000003)
(0.49128801 0.3017928 -0.075000003)
(0.49128801 0.3017928 0.075000003)
(0.49108589 0.3017526 -0.075000003)
(0.49108589 0.3017526 0.075000003)
(0.4908964 0.3017132 -0.075000003)
(0.4908964 0.3017132 0.075000003)
(0.49071869 0.3016746 -0.075000003)
(0.49071869 0.3016746 0.075000003)
(0.49055219 0.3016369 -0.075000003)
(0.49055219 0.3016369 0.075000003)
(0.4903959 0.30160019 -0.075000003)
(0.4903959 0.30160019 0.075000003)
(0.4902494 0.30156431 -0.075000003)
(0.48751131 0.3001062 -0.075000003)
(0.48751229 0.3001107 0.075000003)
(0.48751229 0.3001107 -0.075000003)
(0.4875133 0.30011529 0.075000003)
(0.4875133 0.30011529 -0.075000003)
(0.48751441 0.30011991 0.075000003)
(0.48751441 0.30011991 -0.075000003)
(0.48751551 0.3001245 0.075000003)
(0.48751551 0.3001245 -0.075000003)
(0.4875167 0.30012909 0.075000003)
(0.4875167 0.30012909 -0.075000003)
(0.48751789 0.30013379 0.075000003)
(0.48751789 0.30013379 -0.075000003)
(0.4875192 0.30013841 0.075000003)
(0.4875192 0.30013841 -0.075000003)
(0.48752049 0.30014309 0.075000003)
(0.48752049 0.30014309 -0.075000003)
(0.48752189 0.30014789 0.075000003)
(0.48752189 0.30014789 -0.075000003)
(0.48752329 0.3001526 0.075000003)
(0.48752329 0.3001526 -0.075000003)
(0.48752481 0.30015731 0.075000003)
(0.48752481 0.30015731 -0.075000003)
(0.4875263 0.30016211 0.075000003)
(0.4875263 0.30016211 -0.075000003)
(0.48752791 0.3001669 0.075000003)
(0.48752791 0.3001669 -0.075000003)
(0.48752949 0.30017179 0.075000003)
(0.48752949 0.30017179 -0.075000003)
(0.48753119 0.30017659 0.075000003)
(0.48753119 0.30017659 -0.075000003)
(0.487533 0.30018151 0.075000003)
(0.487533 0.30018151 -0.075000003)
(0.48753479 0.3001864 0.075000003)
(0.48753479 0.3001864 -0.075000003)
(0.4875367 0.3001914 0.075000003)
(0.4875367 0.3001914 -0.075000003)
(0.48753861 0.30019629 0.075000003)
(0.48753861 0.30019629 -0.075000003)
(0.4875406 0.30020139 0.075000003)
(0.4875406 0.30020139 -0.075000003)
(0.48754269 0.30020639 0.075000003)
(0.48754269 0.30020639 -0.075000003)
(0.4875448 0.30021149 0.075000003)
(0.4875448 0.30021149 -0.075000003)
(0.48754701 0.30021659 0.075000003)
(0.48754701 0.30021659 -0.075000003)
(0.4875493 0.30022171 0.075000003)
(0.4875493 0.30022171 -0.075000003)
(0.4875516 0.3002269 0.075000003)
(0.4875516 0.3002269 -0.075000003)
(0.48755401 0.30023211 0.075000003)
(0.48755401 0.30023211 -0.075000003)
(0.48755649 0.30023739 0.075000003)
(0.48755649 0.30023739 -0.075000003)
(0.48755911 0.30024269 0.075000003)
(0.48755911 0.30024269 -0.075000003)
(0.4875617 0.30024809 0.075000003)
(0.4875617 0.30024809 -0.075000003)
(0.48756441 0.30025351 0.075000003)
(0.48756441 0.30025351 -0.075000003)
(0.48756719 0.3002589 0.075000003)
(0.48756719 0.3002589 -0.075000003)
(0.48757011 0.30026439 0.075000003)
(0.48757011 0.30026439 -0.075000003)
(0.48757309 0.3002699 0.075000003)
(0.48757309 0.3002699 -0.075000003)
(0.4875761 0.3002755 0.075000003)
(0.4875761 0.3002755 -0.075000003)
(0.48757929 0.30028111 0.075000003)
(0.48757929 0.30028111 -0.075000003)
(0.4875825 0.3002868 0.075000003)
(0.4875825 0.3002868 -0.075000003)
(0.48758581 0.30029249 0.075000003)
(0.48758581 0.30029249 -0.075000003)
(0.4875893 0.3002983 0.075000003)
(0.4875893 0.3002983 -0.075000003)
(0.48759279 0.30030411 0.075000003)
(0.48759279 0.30030411 -0.075000003)
(0.48759651 0.30030999 0.075000003)
(0.48759651 0.30030999 -0.075000003)
(0.48760021 0.30031601 0.075000003)
(0.48760021 0.30031601 -0.075000003)
(0.48760411 0.300322 0.075000003)
(0.48760411 0.300322 -0.075000003)
(0.4876081 0.30032811 0.075000003)
(0.4876081 0.30032811 -0.075000003)
(0.48761219 0.30033419 0.075000003)
(0.48761219 0.30033419 -0.075000003)
(0.48761639 0.30034041 0.075000003)
(0.48761639 0.30034041 -0.075000003)
(0.4876208 0.3003467 0.075000003)
(0.4876208 0.3003467 -0.075000003)
(0.4876253 0.30035311 0.075000003)
(0.4876253 0.30035311 -0.075000003)
(0.48762989 0.30035949 0.075000003)
(0.48762989 0.30035949 -0.075000003)
(0.48763469 0.30036601 0.075000003)
(0.48763469 0.30036601 -0.075000003)
(0.48763961 0.3003726 0.075000003)
(0.48763961 0.3003726 -0.075000003)
(0.48764461 0.30037919 0.075000003)
(0.48764461 0.30037919 -0.075000003)
(0.48764989 0.30038601 0.075000003)
(0.48764989 0.30038601 -0.075000003)
(0.48765531 0.30039281 0.075000003)
(0.48765531 0.30039281 -0.075000003)
(0.4876608 0.30039969 0.075000003)
(0.4876608 0.30039969 -0.075000003)
(0.48766649 0.30040669 0.075000003)
(0.48766649 0.30040669 -0.075000003)
(0.48767239 0.30041379 0.075000003)
(0.48767239 0.30041379 -0.075000003)
(0.4876785 0.30042091 0.075000003)
(0.4876785 0.30042091 -0.075000003)
(0.4876847 0.30042821 0.075000003)
(0.4876847 0.30042821 -0.075000003)
(0.48769119 0.3004356 0.075000003)
(0.48769119 0.3004356 -0.075000003)
(0.4876979 0.30044311 0.075000003)
(0.4876979 0.30044311 -0.075000003)
(0.48770481 0.30045071 0.075000003)
(0.48770481 0.30045071 -0.075000003)
(0.48771191 0.30045831 0.075000003)
(0.48771191 0.30045831 -0.075000003)
(0.48771921 0.30046621 0.075000003)
(0.48771921 0.30046621 -0.075000003)
(0.48772681 0.30047411 0.075000003)
(0.48772681 0.30047411 -0.075000003)
(0.48773459 0.30048209 0.075000003)
(0.48773459 0.30048209 -0.075000003)
(0.48774281 0.30049029 0.075000003)
(0.48774281 0.30049029 -0.075000003)
(0.4877511 0.3004986 0.075000003)
(0.4877511 0.3004986 -0.075000003)
(0.48775971 0.30050701 0.075000003)
(0.48775971 0.30050701 -0.075000003)
(0.48776871 0.30051559 0.075000003)
(0.48776871 0.30051559 -0.075000003)
(0.48777789 0.30052429 0.075000003)
(0.48777789 0.30052429 -0.075000003)
(0.48778749 0.30053309 0.075000003)
(0.48778749 0.30053309 -0.075000003)
(0.48779741 0.30054209 0.075000003)
(0.48779741 0.30054209 -0.075000003)
(0.48780769 0.30055121 0.075000003)
(0.48780769 0.30055121 -0.075000003)
(0.4878183 0.3005605 0.075000003)
(0.4878183 0.3005605 -0.075000003)
(0.48782921 0.30057001 0.075000003)
(0.48782921 0.30057001 -0.075000003)
(0.48784059 0.30057961 0.075000003)
(0.48784059 0.30057961 -0.075000003)
(0.48785239 0.30058941 0.075000003)
(0.48785239 0.30058941 -0.075000003)
(0.48786461 0.3005994 0.075000003)
(0.48786461 0.3005994 -0.075000003)
(0.48787731 0.30060959 0.075000003)
(0.48787731 0.30060959 -0.075000003)
(0.48789051 0.30061999 0.075000003)
(0.48789051 0.30061999 -0.075000003)
(0.4879041 0.30063051 0.075000003)
(0.4879041 0.30063051 -0.075000003)
(0.48791829 0.3006413 0.075000003)
(0.48791829 0.3006413 -0.075000003)
(0.48793301 0.3006523 0.075000003)
(0.48793301 0.3006523 -0.075000003)
(0.4879483 0.3006635 0.075000003)
(0.4879483 0.3006635 -0.075000003)
(0.48796421 0.30067489 0.075000003)
(0.48796421 0.30067489 -0.075000003)
(0.48798069 0.3006866 0.075000003)
(0.48798069 0.3006866 -0.075000003)
(0.48799789 0.30069849 0.075000003)
(0.48799789 0.30069849 -0.075000003)
(0.48801571 0.30071071 0.075000003)
(0.48801571 0.30071071 -0.075000003)
(0.48803431 0.30072311 0.075000003)
(0.48803431 0.30072311 -0.075000003)
(0.48805371 0.3007358 0.075000003)
(0.48805371 0.3007358 -0.075000003)
(0.48807389 0.3007488 0.075000003)
(0.48807389 0.3007488 -0.075000003)
(0.4880949 0.30076209 0.075000003)
(0.4880949 0.30076209 -0.075000003)
(0.48811689 0.30077559 0.075000003)
(0.48811689 0.30077559 -0.075000003)
(0.48813969 0.30078959 0.075000003)
(0.48813969 0.30078959 -0.075000003)
(0.48816371 0.30080381 0.075000003)
(0.48816371 0.30080381 -0.075000003)
(0.48818859 0.30081829 0.075000003)
(0.48818859 0.30081829 -0.075000003)
(0.4882147 0.3008332 0.075000003)
(0.4882147 0.3008332 -0.075000003)
(0.48824191 0.30084851 0.075000003)
(0.48824191 0.30084851 -0.075000003)
(0.48827049 0.3008641 0.075000003)
(0.48827049 0.3008641 -0.075000003)
(0.48830029 0.30088019 0.075000003)
(0.48830029 0.30088019 -0.075000003)
(0.48833159 0.30089661 0.075000003)
(0.48833159 0.30089661 -0.075000003)
(0.48836431 0.30091351 0.075000003)
(0.48836431 0.30091351 -0.075000003)
(0.48839861 0.30093071 0.075000003)
(0.48839861 0.30093071 -0.075000003)
(0.48843461 0.3009485 0.075000003)
(0.48843461 0.3009485 -0.075000003)
(0.4884724 0.30096671 0.075000003)
(0.4884724 0.30096671 -0.075000003)
(0.4885121 0.3009854 0.075000003)
(0.4885121 0.3009854 -0.075000003)
(0.48855379 0.30100459 0.075000003)
(0.48855379 0.30100459 -0.075000003)
(0.4885976 0.30102441 0.075000003)
(0.4885976 0.30102441 -0.075000003)
(0.48864371 0.3010447 0.075000003)
(0.48864371 0.3010447 -0.075000003)
(0.48869231 0.30106559 0.075000003)
(0.48869231 0.30106559 -0.075000003)
(0.48874351 0.30108699 0.075000003)
(0.48874351 0.30108699 -0.075000003)
(0.4887974 0.30110911 0.075000003)
(0.4887974 0.30110911 -0.075000003)
(0.48885429 0.30113181 0.075000003)
(0.48885429 0.30113181 -0.075000003)
(0.4889144 0.30115509 0.075000003)
(0.4889144 0.30115509 -0.075000003)
(0.48897791 0.3011792 0.075000003)
(0.48897791 0.3011792 -0.075000003)
(0.48904499 0.30120391 0.075000003)
(0.48904499 0.30120391 -0.075000003)
(0.48911589 0.30122939 0.075000003)
(0.48911589 0.30122939 -0.075000003)
(0.48919109 0.30125561 0.075000003)
(0.48919109 0.30125561 -0.075000003)
(0.4892706 0.3012827 0.075000003)
(0.4892706 0.3012827 -0.075000003)
(0.489355 0.30131051 0.075000003)
(0.489355 0.30131051 -0.075000003)
(0.48944449 0.30133909 0.075000003)
(0.48944449 0.30133909 -0.075000003)
(0.48953941 0.30136859 0.075000003)
(0.48953941 0.30136859 -0.075000003)
(0.4896403 0.30139899 0.075000003)
(0.4896403 0.30139899 -0.075000003)
(0.48974749 0.3014302 0.075000003)
(0.48974749 0.3014302 -0.075000003)
(0.48986149 0.30146229 0.075000003)
(0.48986149 0.30146229 -0.075000003)
(0.48998281 0.3014954 0.075000003)
(0.48998281 0.3014954 -0.075000003)
(0.49011189 0.30152941 0.075000003)
(0.49011189 0.30152941 -0.075000003)
(0.4902494 0.30156431 0.075000003)
(0.48789051 0.29938 -0.075000003)
(0.48787731 0.29939041 0.075000003)
(0.48787731 0.29939041 -0.075000003)
(0.48786461 0.2994006 0.075000003)
(0.48786461 0.2994006 -0.075000003)
(0.48785239 0.29941061 0.075000003)
(0.48785239 0.29941061 -0.075000003)
(0.48784059 0.29942039 0.075000003)
(0.48784059 0.29942039 -0.075000003)
(0.48782921 0.29943001 0.075000003)
(0.48782921 0.29943001 -0.075000003)
(0.4878183 0.29943949 0.075000003)
(0.4878183 0.29943949 -0.075000003)
(0.48780769 0.29944879 0.075000003)
(0.48780769 0.29944879 -0.075000003)
(0.48779741 0.29945791 0.075000003)
(0.48779741 0.29945791 -0.075000003)
(0.48778749 0.29946691 0.075000003)
(0.48778749 0.29946691 -0.075000003)
(0.48777789 0.2994757 0.075000003)
(0.48777789 0.2994757 -0.075000003)
(0.48776871 0.2994844 0.075000003)
(0.48776871 0.2994844 -0.075000003)
(0.48775971 0.29949301 0.075000003)
(0.48775971 0.29949301 -0.075000003)
(0.4877511 0.29950139 0.075000003)
(0.4877511 0.29950139 -0.075000003)
(0.48774281 0.2995097 0.075000003)
(0.48774281 0.2995097 -0.075000003)
(0.48773459 0.2995179 0.075000003)
(0.48773459 0.2995179 -0.075000003)
(0.48772681 0.29952589 0.075000003)
(0.48772681 0.29952589 -0.075000003)
(0.48771921 0.29953381 0.075000003)
(0.48771921 0.29953381 -0.075000003)
(0.48771191 0.29954171 0.075000003)
(0.48771191 0.29954171 -0.075000003)
(0.48770481 0.29954931 0.075000003)
(0.48770481 0.29954931 -0.075000003)
(0.4876979 0.29955691 0.075000003)
(0.4876979 0.29955691 -0.075000003)
(0.48769119 0.29956439 0.075000003)
(0.48769119 0.29956439 -0.075000003)
(0.4876847 0.29957181 0.075000003)
(0.4876847 0.29957181 -0.075000003)
(0.4876785 0.29957911 0.075000003)
(0.4876785 0.29957911 -0.075000003)
(0.48767239 0.29958621 0.075000003)
(0.48767239 0.29958621 -0.075000003)
(0.48766649 0.2995933 0.075000003)
(0.48766649 0.2995933 -0.075000003)
(0.4876608 0.2996003 0.075000003)
(0.4876608 0.2996003 -0.075000003)
(0.48765531 0.29960719 0.075000003)
(0.48765531 0.29960719 -0.075000003)
(0.48764989 0.29961401 0.075000003)
(0.48764989 0.29961401 -0.075000003)
(0.48764461 0.29962081 0.075000003)
(0.48764461 0.29962081 -0.075000003)
(0.48763961 0.29962739 0.075000003)
(0.48763961 0.29962739 -0.075000003)
(0.48763469 0.29963401 0.075000003)
(0.48763469 0.29963401 -0.075000003)
(0.48762989 0.29964051 0.075000003)
(0.48762989 0.29964051 -0.075000003)
(0.4876253 0.29964691 0.075000003)
(0.4876253 0.29964691 -0.075000003)
(0.4876208 0.29965329 0.075000003)
(0.4876208 0.29965329 -0.075000003)
(0.48761639 0.29965961 0.075000003)
(0.48761639 0.29965961 -0.075000003)
(0.48761219 0.29966581 0.075000003)
(0.48761219 0.29966581 -0.075000003)
(0.4876081 0.29967189 0.075000003)
(0.4876081 0.29967189 -0.075000003)
(0.48760411 0.299678 0.075000003)
(0.48760411 0.299678 -0.075000003)
(0.48760021 0.29968399 0.075000003)
(0.48760021 0.29968399 -0.075000003)
(0.48759651 0.29969001 0.075000003)
(0.48759651 0.29969001 -0.075000003)
(0.48759279 0.29969591 0.075000003)
(0.48759279 0.29969591 -0.075000003)
(0.4875893 0.29970169 0.075000003)
(0.4875893 0.29970169 -0.075000003)
(0.48758581 0.2997075 0.075000003)
(0.48758581 0.2997075 -0.075000003)
(0.4875825 0.29971319 0.075000003)
(0.4875825 0.29971319 -0.075000003)
(0.48757929 0.29971889 0.075000003)
(0.48757929 0.29971889 -0.075000003)
(0.4875761 0.29972449 0.075000003)
(0.4875761 0.29972449 -0.075000003)
(0.48757309 0.29973009 0.075000003)
(0.48757309 0.29973009 -0.075000003)
(0.48757011 0.29973561 0.075000003)
(0.48757011 0.29973561 -0.075000003)
(0.48756719 0.29974109 0.075000003)
(0.48756719 0.29974109 -0.075000003)
(0.48756441 0.29974651 0.075000003)
(0.48756441 0.29974651 -0.075000003)
(0.4875617 0.29975191 0.075000003)
(0.4875617 0.29975191 -0.075000003)
(0.48755911 0.2997573 0.075000003)
(0.48755911 0.2997573 -0.075000003)
(0.48755649 0.29976261 0.075000003)
(0.48755649 0.29976261 -0.075000003)
(0.48755401 0.29976791 0.075000003)
(0.48755401 0.29976791 -0.075000003)
(0.4875516 0.2997731 0.075000003)
(0.4875516 0.2997731 -0.075000003)
(0.4875493 0.29977831 0.075000003)
(0.4875493 0.29977831 -0.075000003)
(0.48754701 0.29978341 0.075000003)
(0.48754701 0.29978341 -0.075000003)
(0.4875448 0.2997885 0.075000003)
(0.4875448 0.2997885 -0.075000003)
(0.48754269 0.2997936 0.075000003)
(0.48754269 0.2997936 -0.075000003)
(0.4875406 0.29979861 0.075000003)
(0.4875406 0.29979861 -0.075000003)
(0.48753861 0.29980361 0.075000003)
(0.48753861 0.29980361 -0.075000003)
(0.4875367 0.29980859 0.075000003)
(0.4875367 0.29980859 -0.075000003)
(0.48753479 0.2998136 0.075000003)
(0.48753479 0.2998136 -0.075000003)
(0.487533 0.29981849 0.075000003)
(0.487533 0.29981849 -0.075000003)
(0.48753119 0.2998234 0.075000003)
(0.48753119 0.2998234 -0.075000003)
(0.48752949 0.2998282 0.075000003)
(0.48752949 0.2998282 -0.075000003)
(0.48752791 0.29983309 0.075000003)
(0.48752791 0.29983309 -0.075000003)
(0.4875263 0.29983789 0.075000003)
(0.4875263 0.29983789 -0.075000003)
(0.48752481 0.29984269 0.075000003)
(0.48752481 0.29984269 -0.075000003)
(0.48752329 0.29984739 0.075000003)
(0.48752329 0.29984739 -0.075000003)
(0.48752189 0.29985219 0.075000003)
(0.48752189 0.29985219 -0.075000003)
(0.48752049 0.2998569 0.075000003)
(0.48752049 0.2998569 -0.075000003)
(0.4875192 0.29986161 0.075000003)
(0.4875192 0.29986161 -0.075000003)
(0.48751789 0.2998662 0.075000003)
(0.48751789 0.2998662 -0.075000003)
(0.4875167 0.29987091 0.075000003)
(0.4875167 0.29987091 -0.075000003)
(0.48751551 0.2998755 0.075000003)
(0.48751551 0.2998755 -0.075000003)
(0.48751441 0.29988009 0.075000003)
(0.48751441 0.29988009 -0.075000003)
(0.4875133 0.29988471 0.075000003)
(0.4875133 0.29988471 -0.075000003)
(0.48751229 0.2998893 0.075000003)
(0.48751229 0.2998893 -0.075000003)
(0.48751131 0.2998938 0.075000003)
(0.48751131 0.2998938 -0.075000003)
(0.48751029 0.29989839 0.075000003)
(0.48751029 0.29989839 -0.075000003)
(0.4875094 0.29990289 0.075000003)
(0.4875094 0.29990289 -0.075000003)
(0.48750859 0.29990739 0.075000003)
(0.48750859 0.29990739 -0.075000003)
(0.48750779 0.29991189 0.075000003)
(0.48750779 0.29991189 -0.075000003)
(0.48750699 0.29991639 0.075000003)
(0.48750699 0.29991639 -0.075000003)
(0.4875063 0.29992089 0.075000003)
(0.4875063 0.29992089 -0.075000003)
(0.48750561 0.2999253 0.075000003)
(0.48750561 0.2999253 -0.075000003)
(0.4875049 0.2999298 0.075000003)
(0.4875049 0.2999298 -0.075000003)
(0.4875043 0.29993421 0.075000003)
(0.4875043 0.29993421 -0.075000003)
(0.4875038 0.29993859 0.075000003)
(0.4875038 0.29993859 -0.075000003)
(0.4875032 0.29994309 0.075000003)
(0.4875032 0.29994309 -0.075000003)
(0.48750281 0.2999475 0.075000003)
(0.48750281 0.2999475 -0.075000003)
(0.48750231 0.29995191 0.075000003)
(0.48750231 0.29995191 -0.075000003)
(0.48750189 0.29995629 0.075000003)
(0.48750189 0.29995629 -0.075000003)
(0.48750159 0.29996061 0.075000003)
(0.48750159 0.29996061 -0.075000003)
(0.4875012 0.29996511 0.075000003)
(0.4875012 0.29996511 -0.075000003)
(0.48750091 0.2999694 0.075000003)
(0.48750091 0.2999694 -0.075000003)
(0.4875007 0.29997379 0.075000003)
(0.4875007 0.29997379 -0.075000003)
(0.48750049 0.2999782 0.075000003)
(0.48750049 0.2999782 -0.075000003)
(0.48750031 0.29998249 0.075000003)
(0.48750031 0.29998249 -0.075000003)
(0.48750019 0.2999869 0.075000003)
(0.48750019 0.2999869 -0.075000003)
(0.4875001 0.29999131 0.075000003)
(0.4875001 0.29999131 -0.075000003)
(0.48750001 0.2999956 0.075000003)
(0.48750001 0.2999956 -0.075000003)
(0.48750001 0.30000001 0.075000003)
(0.48750001 0.30000001 -0.075000003)
(0.48750001 0.30000439 0.075000003)
(0.48750001 0.30000439 -0.075000003)
(0.4875001 0.30000871 0.075000003)
(0.4875001 0.30000871 -0.075000003)
(0.48750019 0.3000131 0.075000003)
(0.48750019 0.3000131 -0.075000003)
(0.48750031 0.30001739 0.075000003)
(0.48750031 0.30001739 -0.075000003)
(0.48750049 0.3000218 0.075000003)
(0.48750049 0.3000218 -0.075000003)
(0.4875007 0.30002621 0.075000003)
(0.4875007 0.30002621 -0.075000003)
(0.48750091 0.30003059 0.075000003)
(0.48750091 0.30003059 -0.075000003)
(0.4875012 0.300035 0.075000003)
(0.4875012 0.300035 -0.075000003)
(0.48750159 0.30003941 0.075000003)
(0.48750159 0.30003941 -0.075000003)
(0.48750189 0.3000437 0.075000003)
(0.48750189 0.3000437 -0.075000003)
(0.48750231 0.30004811 0.075000003)
(0.48750231 0.30004811 -0.075000003)
(0.48750281 0.30005261 0.075000003)
(0.48750281 0.30005261 -0.075000003)
(0.4875032 0.30005699 0.075000003)
(0.4875032 0.30005699 -0.075000003)
(0.4875038 0.3000614 0.075000003)
(0.4875038 0.3000614 -0.075000003)
(0.4875043 0.30006579 0.075000003)
(0.4875043 0.30006579 -0.075000003)
(0.4875049 0.30007029 0.075000003)
(0.4875049 0.30007029 -0.075000003)
(0.48750561 0.3000747 0.075000003)
(0.48750561 0.3000747 -0.075000003)
(0.4875063 0.3000792 0.075000003)
(0.4875063 0.3000792 -0.075000003)
(0.48750699 0.30008361 0.075000003)
(0.48750699 0.30008361 -0.075000003)
(0.48750779 0.30008811 0.075000003)
(0.48750779 0.30008811 -0.075000003)
(0.48750859 0.30009261 0.075000003)
(0.48750859 0.30009261 -0.075000003)
(0.4875094 0.30009711 0.075000003)
(0.4875094 0.30009711 -0.075000003)
(0.48751029 0.30010161 0.075000003)
(0.48751029 0.30010161 -0.075000003)
(0.48751131 0.3001062 0.075000003)
(0.51156539 0.29905149 -0.075000003)
(0.5115276 0.29903331 0.075000003)
(0.5115276 0.29903331 -0.075000003)
(0.51148802 0.2990146 0.075000003)
(0.51148802 0.2990146 -0.075000003)
(0.51144618 0.29899529 0.075000003)
(0.51144618 0.29899529 -0.075000003)
(0.51140243 0.29897559 0.075000003)
(0.51140243 0.29897559 -0.075000003)
(0.51135629 0.29895529 0.075000003)
(0.51135629 0.29895529 -0.075000003)
(0.51130772 0.2989344 0.075000003)
(0.51130772 0.2989344 -0.075000003)
(0.51125652 0.298913 0.075000003)
(0.51125652 0.298913 -0.075000003)
(0.51120257 0.29889089 0.075000003)
(0.51120257 0.29889089 -0.075000003)
(0.51114571 0.29886821 0.075000003)
(0.51114571 0.29886821 -0.075000003)
(0.51108563 0.29884481 0.075000003)
(0.51108563 0.29884481 -0.075000003)
(0.51102221 0.29882079 0.075000003)
(0.51102221 0.29882079 -0.075000003)
(0.51095498 0.29879609 0.075000003)
(0.51095498 0.29879609 -0.075000003)
(0.51088399 0.29877061 0.075000003)
(0.51088399 0.29877061 -0.075000003)
(0.51080889 0.29874441 0.075000003)
(0.51080889 0.29874441 -0.075000003)
(0.51072937 0.29871729 0.075000003)
(0.51072937 0.29871729 -0.075000003)
(0.51064497 0.29868951 0.075000003)
(0.51064497 0.29868951 -0.075000003)
(0.51055551 0.2986609 0.075000003)
(0.51055551 0.2986609 -0.075000003)
(0.51046062 0.2986314 0.075000003)
(0.51046062 0.2986314 -0.075000003)
(0.5103597 0.29860109 0.075000003)
(0.5103597 0.29860109 -0.075000003)
(0.51025248 0.2985698 0.075000003)
(0.51025248 0.2985698 -0.075000003)
(0.51013851 0.2985377 0.075000003)
(0.51013851 0.2985377 -0.075000003)
(0.51001722 0.29850459 0.075000003)
(0.51001722 0.29850459 -0.075000003)
(0.50988811 0.29847059 0.075000003)
(0.50988811 0.29847059 -0.075000003)
(0.5097506 0.29843569 0.075000003)
(0.5097506 0.29843569 -0.075000003)
(0.50960398 0.29839981 0.075000003)
(0.50960398 0.29839981 -0.075000003)
(0.50944787 0.29836309 0.075000003)
(0.50944787 0.29836309 -0.075000003)
(0.50928128 0.29832539 0.075000003)
(0.50928128 0.29832539 -0.075000003)
(0.50910372 0.2982868 0.075000003)
(0.50910372 0.2982868 -0.075000003)
(0.50891411 0.2982474 0.075000003)
(0.50891411 0.2982474 -0.075000003)
(0.50871199 0.29820719 0.075000003)
(0.50871199 0.29820719 -0.075000003)
(0.5084964 0.2981663 0.075000003)
(0.5084964 0.2981663 -0.075000003)
(0.50826651 0.2981247 0.075000003)
(0.50826651 0.2981247 -0.075000003)
(0.50802141 0.29808259 0.075000003)
(0.50802141 0.29808259 -0.075000003)
(0.50776029 0.29804009 0.075000003)
(0.50776029 0.29804009 -0.075000003)
(0.50748241 0.29799739 0.075000003)
(0.50748241 0.29799739 -0.075000003)
(0.50718677 0.2979545 0.075000003)
(0.50718677 0.2979545 -0.075000003)
(0.50687289 0.29791179 0.075000003)
(0.50687289 0.29791179 -0.075000003)
(0.50653988 0.2978695 0.075000003)
(0.50653988 0.2978695 -0.075000003)
(0.50618738 0.29782781 0.075000003)
(0.50618738 0.29782781 -0.075000003)
(0.50581503 0.29778701 0.075000003)
(0.50581503 0.29778701 -0.075000003)
(0.50542241 0.29774749 0.075000003)
(0.50542241 0.29774749 -0.075000003)
(0.50500971 0.29770961 0.075000003)
(0.50500971 0.29770961 -0.075000003)
(0.50457722 0.29767361 0.075000003)
(0.50457722 0.29767361 -0.075000003)
(0.50412548 0.29764009 0.075000003)
(0.50412548 0.29764009 -0.075000003)
(0.50365561 0.2976093 0.075000003)
(0.50365561 0.2976093 -0.075000003)
(0.50316852 0.29758161 0.075000003)
(0.50316852 0.29758161 -0.075000003)
(0.502666 0.2975575 0.075000003)
(0.502666 0.2975575 -0.075000003)
(0.50215 0.2975373 0.075000003)
(0.50215 0.2975373 -0.075000003)
(0.5016228 0.29752111 0.075000003)
(0.5016228 0.29752111 -0.075000003)
(0.50108677 0.29750949 0.075000003)
(0.50108677 0.29750949 -0.075000003)
(0.50054491 0.2975024 0.075000003)
(0.50054491 0.2975024 -0.075000003)
(0.5 0.29750001 0.075000003)
(0.5 0.29750001 -0.075000003)
(0.49945509 0.2975024 0.075000003)
(0.49945509 0.2975024 -0.075000003)
(0.4989132 0.29750949 0.075000003)
(0.4989132 0.29750949 -0.075000003)
(0.4983772 0.29752111 0.075000003)
(0.4983772 0.29752111 -0.075000003)
(0.49785 0.2975373 0.075000003)
(0.49785 0.2975373 -0.075000003)
(0.497334 0.2975575 0.075000003)
(0.497334 0.2975575 -0.075000003)
(0.49683151 0.29758161 0.075000003)
(0.49683151 0.29758161 -0.075000003)
(0.49634439 0.2976093 0.075000003)
(0.49634439 0.2976093 -0.075000003)
(0.49587449 0.29764009 0.075000003)
(0.49587449 0.29764009 -0.075000003)
(0.49542281 0.29767361 0.075000003)
(0.49542281 0.29767361 -0.075000003)
(0.49499029 0.29770961 0.075000003)
(0.49499029 0.29770961 -0.075000003)
(0.49457759 0.29774749 0.075000003)
(0.49457759 0.29774749 -0.075000003)
(0.49418509 0.29778701 0.075000003)
(0.49418509 0.29778701 -0.075000003)
(0.49381259 0.29782781 0.075000003)
(0.49381259 0.29782781 -0.075000003)
(0.49346009 0.2978695 0.075000003)
(0.49346009 0.2978695 -0.075000003)
(0.49312711 0.29791179 0.075000003)
(0.49312711 0.29791179 -0.075000003)
(0.4928132 0.2979545 0.075000003)
(0.4928132 0.2979545 -0.075000003)
(0.49251759 0.29799739 0.075000003)
(0.49251759 0.29799739 -0.075000003)