/*--------------------------------*- C++ -*----------------------------------*\
| =========                 |                                                 |
| \\      /  F ield         | OpenFOAM: The Open Source CFD Toolbox           |
|  \\    /   O peration     | Version:  v1906                                 |
|   \\  /    A nd           | Web:      www.OpenFOAM.com                      |
|    \\/     M anipulation  |                                                 |
\*---------------------------------------------------------------------------*/
FoamFile
{
    version     2.0;
    format      ascii;
    class       featureEdgeMesh;
    location    "constant/triSurface";
    object      naca0012.eMesh;
}
// * * * * * * * * * * * * * * * * * * * * * * * * * * * * * * * * * * * * * //


// points:

1498
(
(0.69956738 0.30049539 0.050000001)
(0.69956738 0.30049539 -0.050000001)
(0.694475 0.30116749 -0.050000001)
(0.60042459 0.30113959 0.050000001)
(0.60041082 0.3011215 -0.050000001)
(0.60041082 0.3011215 0.050000001)
(0.60039753 0.30110359 -0.050000001)
(0.60039753 0.30110359 0.050000001)
(0.60038441 0.30108589 -0.050000001)
(0.60038441 0.30108589 0.050000001)
(0.60037178 0.3010684 -0.050000001)
(0.60037178 0.3010684 0.050000001)
(0.6003595 0.30105111 -0.050000001)
(0.6003595 0.30105111 0.050000001)
(0.60034752 0.301034 -0.050000001)
(0.60034752 0.301034 0.050000001)
(0.6003359 0.30101699 -0.050000001)
(0.6003359 0.30101699 0.050000001)
(0.60032457 0.30100009 -0.050000001)
(0.60032457 0.30100009 0.050000001)
(0.60031348 0.30098349 -0.050000001)
(0.60031348 0.30098349 0.050000001)
(0.60030282 0.30096689 -0.050000001)
(0.60030282 0.30096689 0.050000001)
(0.60029238 0.3009505 -0.050000001)
(0.60029238 0.3009505 0.050000001)
(0.60028219 0.30093431 -0.050000001)
(0.60028219 0.30093431 0.050000001)
(0.6002723 0.3009181 -0.050000001)
(0.6002723 0.3009181 0.050000001)
(0.6002627 0.3009021 -0.050000001)
(0.6002627 0.3009021 0.050000001)
(0.60025328 0.30088621 -0.050000001)
(0.60025328 0.30088621 0.050000001)
(0.60024422 0.30087039 -0.050000001)
(0.60024422 0.30087039 0.050000001)
(0.60023522 0.30085471 -0.050000001)
(0.60023522 0.30085471 0.050000001)
(0.60022652 0.3008391 -0.050000001)
(0.60022652 0.3008391 0.050000001)
(0.60021812 0.3008236 -0.050000001)
(0.60021812 0.3008236 0.050000001)
(0.60020977 0.30080819 -0.050000001)
(0.60020977 0.30080819 0.050000001)
(0.60020179 0.30079281 -0.050000001)
(0.60020179 0.30079281 0.050000001)
(0.60019392 0.30077761 -0.050000001)
(0.60019392 0.30077761 0.050000001)
(0.60018629 0.30076239 -0.050000001)
(0.60018629 0.30076239 0.050000001)
(0.60017878 0.30074731 -0.050000001)
(0.60017878 0.30074731 0.050000001)
(0.60017163 0.3007322 -0.050000001)
(0.60017163 0.3007322 0.050000001)
(0.60016447 0.30071729 -0.050000001)
(0.60016447 0.30071729 0.050000001)
(0.60015762 0.30070239 -0.050000001)
(0.60015762 0.30070239 0.050000001)
(0.60015088 0.30068761 -0.050000001)
(0.60015088 0.30068761 0.050000001)
(0.60014439 0.30067289 -0.050000001)
(0.60014439 0.30067289 0.050000001)
(0.60013813 0.30065829 -0.050000001)
(0.60013813 0.30065829 0.050000001)
(0.60013199 0.30064371 -0.050000001)
(0.60013199 0.30064371 0.050000001)
(0.60012603 0.3006292 -0.050000001)
(0.60012603 0.3006292 0.050000001)
(0.60012019 0.3006148 -0.050000001)
(0.60012019 0.3006148 0.050000001)
(0.60011458 0.3006005 -0.050000001)
(0.60011458 0.3006005 0.050000001)
(0.6001091 0.30058631 -0.050000001)
(0.6001091 0.30058631 0.050000001)
(0.6001038 0.3005721 -0.050000001)
(0.6001038 0.3005721 0.050000001)
(0.60009873 0.300558 -0.050000001)
(0.60009873 0.300558 0.050000001)
(0.60009372 0.30054399 -0.050000001)
(0.60009372 0.30054399 0.050000001)
(0.60008889 0.30052999 -0.050000001)
(0.60008889 0.30052999 0.050000001)
(0.60008419 0.30051619 -0.050000001)
(0.60008419 0.30051619 0.050000001)
(0.60007977 0.30050239 -0.050000001)
(0.60007977 0.30050239 0.050000001)
(0.60007542 0.30048871 -0.050000001)
(0.60007542 0.30048871 0.050000001)
(0.60007119 0.30047509 -0.050000001)
(0.60007119 0.30047509 0.050000001)
(0.60006708 0.3004615 -0.050000001)
(0.60006708 0.3004615 0.050000001)
(0.6000632 0.300448 -0.050000001)
(0.6000632 0.300448 0.050000001)
(0.60005939 0.30043459 -0.050000001)
(0.60005939 0.30043459 0.050000001)
(0.60005581 0.30042121 -0.050000001)
(0.60005581 0.30042121 0.050000001)
(0.6000523 0.30040789 -0.050000001)
(0.6000523 0.30040789 0.050000001)
(0.6000489 0.30039451 -0.050000001)
(0.6000489 0.30039451 0.050000001)
(0.60004562 0.30038121 -0.050000001)
(0.60004562 0.30038121 0.050000001)
(0.60004252 0.3003678 -0.050000001)
(0.60004252 0.3003678 0.050000001)
(0.60003942 0.30035439 -0.050000001)
(0.60003942 0.30035439 0.050000001)
(0.60003638 0.30034101 -0.050000001)
(0.60003638 0.30034101 0.050000001)
(0.60003358 0.30032751 -0.050000001)
(0.60003358 0.30032751 0.050000001)
(0.6000309 0.3003141 -0.050000001)
(0.6000309 0.3003141 0.050000001)
(0.60002828 0.3003006 -0.050000001)
(0.60002828 0.3003006 0.050000001)
(0.60002577 0.30028719 -0.050000001)
(0.60002577 0.30028719 0.050000001)
(0.60002339 0.30027369 -0.050000001)
(0.60002339 0.30027369 0.050000001)
(0.60002118 0.30026031 -0.050000001)
(0.60002118 0.30026031 0.050000001)
(0.60001898 0.30024689 -0.050000001)
(0.60001898 0.30024689 0.050000001)
(0.60001701 0.30023339 -0.050000001)
(0.60001701 0.30023339 0.050000001)
(0.6000151 0.30022001 -0.050000001)
(0.6000151 0.30022001 0.050000001)
(0.60001332 0.3002066 -0.050000001)
(0.60001332 0.3002066 0.050000001)
(0.60001159 0.30019319 -0.050000001)
(0.60001159 0.30019319 0.050000001)
(0.6000101 0.30017969 -0.050000001)
(0.6000101 0.30017969 0.050000001)
(0.60000861 0.3001664 -0.050000001)
(0.60000861 0.3001664 0.050000001)
(0.6000073 0.30015299 -0.050000001)
(0.6000073 0.30015299 0.050000001)
(0.60000598 0.30013961 -0.050000001)
(0.60000598 0.30013961 0.050000001)
(0.60000497 0.30012631 -0.050000001)
(0.60000497 0.30012631 0.050000001)
(0.60000402 0.30011299 -0.050000001)
(0.60000402 0.30011299 0.050000001)
(0.60000312 0.3000997 -0.050000001)
(0.60000312 0.3000997 0.050000001)
(0.60000229 0.3000865 -0.050000001)
(0.60000229 0.3000865 0.050000001)
(0.60000157 0.30007321 -0.050000001)
(0.60000157 0.30007321 0.050000001)
(0.6000011 0.30006 -0.050000001)
(0.6000011 0.30006 0.050000001)
(0.60000068 0.3000468 -0.050000001)
(0.60000068 0.3000468 0.050000001)
(0.60000032 0.30003369 -0.050000001)
(0.60000032 0.30003369 0.050000001)
(0.60000008 0.30002061 -0.050000001)
(0.60000008 0.30002061 0.050000001)
(0.60000002 0.30000749 -0.050000001)
(0.60000002 0.30000749 0.050000001)
(0.60000002 0.30000001 -0.050000001)
(0.60000002 0.30000001 0.050000001)
(0.60042459 0.30113959 -0.050000001)
(0.60043877 0.30115789 0.050000001)
(0.60043877 0.30115789 -0.050000001)
(0.60045338 0.3011764 0.050000001)
(0.60045338 0.3011764 -0.050000001)
(0.60046852 0.30119511 0.050000001)
(0.60046852 0.30119511 -0.050000001)
(0.60048401 0.3012141 0.050000001)
(0.60048401 0.3012141 -0.050000001)
(0.60049999 0.30123341 0.050000001)
(0.60049999 0.30123341 -0.050000001)
(0.6005165 0.3012529 0.050000001)
(0.6005165 0.3012529 -0.050000001)
(0.60053349 0.30127269 0.050000001)
(0.60053349 0.30127269 -0.050000001)
(0.60055089 0.3012926 0.050000001)
(0.60055089 0.3012926 -0.050000001)
(0.60056871 0.3013126 0.050000001)
(0.60056871 0.3013126 -0.050000001)
(0.60058713 0.30133289 0.050000001)
(0.60058713 0.30133289 -0.050000001)
(0.60060579 0.30135331 0.050000001)
(0.60060579 0.30135331 -0.050000001)
(0.60062522 0.30137399 0.050000001)
(0.60062522 0.30137399 -0.050000001)
(0.60064512 0.30139479 0.050000001)
(0.60064512 0.30139479 -0.050000001)
(0.60066521 0.30141559 0.050000001)
(0.60066521 0.30141559 -0.050000001)
(0.60068619 0.3014369 0.050000001)
(0.60068619 0.3014369 -0.050000001)
(0.60070783 0.30145851 0.050000001)
(0.60070783 0.30145851 -0.050000001)
(0.60073012 0.30148041 0.050000001)
(0.60073012 0.30148041 -0.050000001)
(0.60075313 0.30150259 0.050000001)
(0.60075313 0.30150259 -0.050000001)
(0.60077667 0.30152509 0.050000001)
(0.60077667 0.30152509 -0.050000001)
(0.60080123 0.30154791 0.050000001)
(0.60080123 0.30154791 -0.050000001)
(0.60082662 0.3015711 0.050000001)
(0.60082662 0.3015711 -0.050000001)
(0.60085279 0.30159479 0.050000001)
(0.60085279 0.30159479 -0.050000001)
(0.60088003 0.3016189 0.050000001)
(0.60088003 0.3016189 -0.050000001)
(0.60090822 0.3016434 0.050000001)
(0.60090822 0.3016434 -0.050000001)
(0.60093743 0.30166849 0.050000001)
(0.60093743 0.30166849 -0.050000001)
(0.60096753 0.3016938 0.050000001)
(0.60096753 0.3016938 -0.050000001)
(0.6009984 0.30171931 0.050000001)
(0.6009984 0.30171931 -0.050000001)
(0.60103017 0.30174521 0.050000001)
(0.60103017 0.30174521 -0.050000001)
(0.60106301 0.3017714 0.050000001)
(0.60106301 0.3017714 -0.050000001)
(0.60109681 0.30179799 0.050000001)
(0.60109681 0.30179799 -0.050000001)
(0.60113168 0.3018249 0.050000001)
(0.60113168 0.3018249 -0.050000001)
(0.6011678 0.30185229 0.050000001)
(0.6011678 0.30185229 -0.050000001)
(0.60120523 0.30188009 0.050000001)
(0.60120523 0.30188009 -0.050000001)
(0.60124391 0.3019084 0.050000001)
(0.60124391 0.3019084 -0.050000001)
(0.60128409 0.30193731 0.050000001)
(0.60128409 0.30193731 -0.050000001)
(0.60132599 0.30196691 0.050000001)
(0.60132599 0.30196691 -0.050000001)
(0.60136968 0.30199721 0.050000001)
(0.60136968 0.30199721 -0.050000001)
(0.60141551 0.3020283 0.050000001)
(0.60141551 0.3020283 -0.050000001)
(0.60146308 0.3020601 0.050000001)
(0.60146308 0.3020601 -0.050000001)
(0.60151237 0.3020924 0.050000001)
(0.60151237 0.3020924 -0.050000001)
(0.6015631 0.30212501 0.050000001)
(0.6015631 0.30212501 -0.050000001)
(0.60161561 0.30215821 0.050000001)
(0.60161561 0.30215821 -0.050000001)
(0.60166991 0.30219179 0.050000001)
(0.60166991 0.30219179 -0.050000001)
(0.60172617 0.30222601 0.050000001)
(0.60172617 0.30222601 -0.050000001)
(0.60178471 0.30226091 0.050000001)
(0.60178471 0.30226091 -0.050000001)
(0.60184562 0.30229649 0.050000001)
(0.60184562 0.30229649 -0.050000001)
(0.60190839 0.30233261 0.050000001)
(0.60190839 0.30233261 -0.050000001)
(0.60193467 0.3023473 0.050000001)
(0.60193467 0.3023473 -0.050000001)
(0.60200262 0.30238521 0.050000001)
(0.60200262 0.30238521 -0.050000001)
(0.60207391 0.3024241 0.050000001)
(0.60207391 0.3024241 -0.050000001)
(0.60214812 0.3024638 0.050000001)
(0.60214812 0.3024638 -0.050000001)
(0.60222489 0.302504 0.050000001)
(0.60222489 0.302504 -0.050000001)
(0.6023047 0.30254501 0.050000001)
(0.6023047 0.30254501 -0.050000001)
(0.60238779 0.3025867 0.050000001)
(0.60238779 0.3025867 -0.050000001)
(0.60247457 0.30262929 0.050000001)
(0.60247457 0.30262929 -0.050000001)
(0.60256541 0.30267301 0.050000001)
(0.60256541 0.30267301 -0.050000001)
(0.60266101 0.30271801 0.050000001)
(0.60266101 0.30271801 -0.050000001)
(0.60276192 0.3027643 0.050000001)
(0.60276192 0.3027643 -0.050000001)
(0.60286808 0.30281201 0.050000001)
(0.60286808 0.30281201 -0.050000001)
(0.60297853 0.30286041 0.050000001)
(0.60297853 0.30286041 -0.050000001)
(0.60309362 0.30290979 0.050000001)
(0.60309362 0.30290979 -0.050000001)
(0.60321409 0.30296019 0.050000001)
(0.60321409 0.30296019 -0.050000001)
(0.60334063 0.3030118 0.050000001)
(0.60334063 0.3030118 -0.050000001)
(0.60347372 0.30306479 0.050000001)
(0.60347372 0.30306479 -0.050000001)
(0.60359979 0.30311379 0.050000001)
(0.60359979 0.30311379 -0.050000001)
(0.60374808 0.30317 0.050000001)
(0.60374808 0.30317 -0.050000001)
(0.60390311 0.30322719 0.050000001)
(0.60390311 0.30322719 -0.050000001)
(0.60406548 0.3032856 0.050000001)
(0.60406548 0.3032856 -0.050000001)
(0.60423648 0.30334541 0.050000001)
(0.60423648 0.30334541 -0.050000001)
(0.60441709 0.30340669 0.050000001)
(0.60441709 0.30340669 -0.050000001)
(0.60458821 0.30346331 0.050000001)
(0.60458821 0.30346331 -0.050000001)
(0.60478961 0.30352801 0.050000001)
(0.60478961 0.30352801 -0.050000001)
(0.60499293 0.30359149 0.050000001)
(0.60499293 0.30359149 -0.050000001)
(0.60521537 0.3036589 0.050000001)
(0.60521537 0.3036589 -0.050000001)
(0.60542619 0.3037208 0.050000001)
(0.60542619 0.3037208 -0.050000001)
(0.60564828 0.30378419 0.050000001)
(0.60564828 0.30378419 -0.050000001)
(0.60591137 0.30385691 0.050000001)
(0.60591137 0.30385691 -0.050000001)
(0.60618788 0.3039307 0.050000001)
(0.60618788 0.3039307 -0.050000001)
(0.60644972 0.30399829 0.050000001)
(0.60644972 0.30399829 -0.050000001)
(0.6067251 0.30406711 0.050000001)
(0.6067251 0.30406711 -0.050000001)
(0.60701638 0.3041375 0.050000001)
(0.60701638 0.3041375 -0.050000001)
(0.60735983 0.3042174 0.050000001)
(0.60735983 0.3042174 -0.050000001)
(0.60768467 0.30429029 0.050000001)
(0.60768467 0.30429029 -0.050000001)
(0.60802782 0.30436429 0.050000001)
(0.60802782 0.30436429 -0.050000001)
(0.60839218 0.30443999 0.050000001)
(0.60839218 0.30443999 -0.050000001)
(0.60877699 0.30451679 0.050000001)
(0.60877699 0.30451679 -0.050000001)
(0.60918218 0.3045944 0.050000001)
(0.60918218 0.3045944 -0.050000001)
(0.60961151 0.30467311 0.050000001)
(0.60961151 0.30467311 -0.050000001)
(0.61006647 0.3047528 0.050000001)
(0.61006647 0.3047528 -0.050000001)
(0.61054498 0.30483279 0.050000001)
(0.61054498 0.30483279 -0.050000001)
(0.61105001 0.30491319 0.050000001)
(0.61105001 0.30491319 -0.050000001)
(0.61162388 0.3049998 0.050000001)
(0.61162388 0.3049998 -0.050000001)
(0.61219251 0.3050808 0.050000001)
(0.61219251 0.3050808 -0.050000001)
(0.61279827 0.3051624 0.050000001)
(0.61279827 0.3051624 -0.050000001)
(0.61344212 0.30524391 0.050000001)
(0.61344212 0.30524391 -0.050000001)
(0.61412191 0.30532461 0.050000001)
(0.61412191 0.30532461 -0.050000001)
(0.61484301 0.30540451 0.050000001)
(0.61484301 0.30540451 -0.050000001)
(0.6156047 0.3054828 0.050000001)
(0.6156047 0.3054828 -0.050000001)
(0.6164121 0.30555949 0.050000001)
(0.6164121 0.30555949 -0.050000001)
(0.61726809 0.30563399 0.050000001)
(0.61726809 0.30563399 -0.050000001)
(0.61817843 0.30570611 0.050000001)
(0.61817843 0.30570611 -0.050000001)
(0.61914742 0.3057752 0.050000001)
(0.61914742 0.3057752 -0.050000001)
(0.62018108 0.30584079 0.050000001)
(0.62018108 0.30584079 -0.050000001)
(0.62127858 0.30590191 0.050000001)
(0.62127858 0.30590191 -0.050000001)
(0.62244219 0.30595741 0.050000001)
(0.62244219 0.30595741 -0.050000001)
(0.62368822 0.30600709 0.050000001)
(0.62368822 0.30600709 -0.050000001)
(0.62516308 0.30605391 0.050000001)
(0.62516308 0.30605391 -0.050000001)
(0.62658298 0.30608729 0.050000001)
(0.62658298 0.30608729 -0.050000001)
(0.6281094 0.30611119 0.050000001)
(0.6281094 0.30611119 -0.050000001)
(0.62976372 0.30612421 0.050000001)
(0.62976372 0.30612421 -0.050000001)
(0.63153559 0.3061243 0.050000001)
(0.63153559 0.3061243 -0.050000001)
(0.63344032 0.30610949 0.050000001)
(0.63344032 0.30610949 -0.050000001)
(0.63550073 0.30607739 0.050000001)
(0.63550073 0.30607739 -0.050000001)
(0.63773447 0.30602521 0.050000001)
(0.63773447 0.30602521 -0.050000001)
(0.64018059 0.30594891 0.050000001)
(0.64018059 0.30594891 -0.050000001)
(0.64286298 0.30584431 0.050000001)
(0.64286298 0.30584431 -0.050000001)
(0.6458016 0.3057068 0.050000001)
(0.6458016 0.3057068 -0.050000001)
(0.64905941 0.30552891 0.050000001)
(0.64905941 0.30552891 -0.050000001)
(0.65295398 0.30528471 0.050000001)
(0.65295398 0.30528471 -0.050000001)
(0.65704077 0.30499551 0.050000001)
(0.65704077 0.30499551 -0.050000001)
(0.66163778 0.30463421 0.050000001)
(0.66163778 0.30463421 -0.050000001)
(0.66660738 0.30420521 0.050000001)
(0.66660738 0.30420521 -0.050000001)
(0.67231178 0.30366829 0.050000001)
(0.67231178 0.30366829 -0.050000001)
(0.67808622 0.30307961 0.050000001)
(0.67808622 0.30307961 -0.050000001)
(0.68376732 0.3024576 0.050000001)
(0.68376732 0.3024576 -0.050000001)
(0.68929029 0.30181199 0.050000001)
(0.68929029 0.30181199 -0.050000001)
(0.694475 0.30116749 0.050000001)
(0.69984889 0.30035809 0.050000001)
(0.69984579 0.30036119 -0.050000001)
(0.69984579 0.30036119 0.050000001)
(0.69984257 0.3003642 -0.050000001)
(0.69984257 0.3003642 0.050000001)
(0.69983941 0.30036709 -0.050000001)
(0.69983941 0.30036709 0.050000001)
(0.69983619 0.3003701 -0.050000001)
(0.69983619 0.3003701 0.050000001)
(0.69983298 0.30037299 -0.050000001)
(0.69983298 0.30037299 0.050000001)
(0.6998297 0.30037591 -0.050000001)
(0.6998297 0.30037591 0.050000001)
(0.69982642 0.3003788 -0.050000001)
(0.69982642 0.3003788 0.050000001)
(0.69982308 0.3003816 -0.050000001)
(0.69982308 0.3003816 0.050000001)
(0.69981968 0.3003844 -0.050000001)
(0.69981968 0.3003844 0.050000001)
(0.69981629 0.3003872 -0.050000001)
(0.69981629 0.3003872 0.050000001)
(0.69981289 0.30038989 -0.050000001)
(0.69981289 0.30038989 0.050000001)
(0.69980961 0.30039269 -0.050000001)
(0.69980961 0.30039269 0.050000001)
(0.69980609 0.30039531 -0.050000001)
(0.69980609 0.30039531 0.050000001)
(0.69980258 0.30039799 -0.050000001)
(0.69980258 0.30039799 0.050000001)
(0.69979918 0.30040061 -0.050000001)
(0.69979918 0.30040061 0.050000001)
(0.69979572 0.30040321 -0.050000001)
(0.69979572 0.30040321 0.050000001)
(0.69979209 0.3004058 -0.050000001)
(0.69979209 0.3004058 0.050000001)
(0.69978857 0.3004083 -0.050000001)
(0.69978857 0.3004083 0.050000001)
(0.69978499 0.30041081 -0.050000001)
(0.69978499 0.30041081 0.050000001)
(0.69978142 0.30041331 -0.050000001)
(0.69978142 0.30041331 0.050000001)
(0.69977778 0.30041569 -0.050000001)
(0.69977778 0.30041569 0.050000001)
(0.69977409 0.30041811 -0.050000001)
(0.69977409 0.30041811 0.050000001)
(0.69977051 0.30042049 -0.050000001)
(0.69977051 0.30042049 0.050000001)
(0.69976681 0.30042279 -0.050000001)
(0.69976681 0.30042279 0.050000001)
(0.69976312 0.3004252 -0.050000001)
(0.69976312 0.3004252 0.050000001)
(0.69975942 0.30042741 -0.050000001)
(0.69975942 0.30042741 0.050000001)
(0.69975573 0.3004297 -0.050000001)
(0.69975573 0.3004297 0.050000001)
(0.69975191 0.30043191 -0.050000001)
(0.69975191 0.30043191 0.050000001)
(0.6997481 0.30043411 -0.050000001)
(0.6997481 0.30043411 0.050000001)
(0.69974428 0.3004362 -0.050000001)
(0.69974428 0.3004362 0.050000001)
(0.69974053 0.30043831 -0.050000001)
(0.69974053 0.30043831 0.050000001)
(0.69973671 0.3004404 -0.050000001)
(0.69973671 0.3004404 0.050000001)
(0.69973278 0.30044249 -0.050000001)
(0.69973278 0.30044249 0.050000001)
(0.69972903 0.30044451 -0.050000001)
(0.69972903 0.30044451 0.050000001)
(0.69972509 0.30044651 -0.050000001)
(0.69972509 0.30044651 0.050000001)
(0.69972122 0.30044839 -0.050000001)
(0.69972122 0.30044839 0.050000001)
(0.69971722 0.30045041 -0.050000001)
(0.69971722 0.30045041 0.050000001)
(0.69971329 0.3004522 -0.050000001)
(0.69971329 0.3004522 0.050000001)
(0.69970942 0.30045411 -0.050000001)
(0.69970942 0.30045411 0.050000001)
(0.69970542 0.3004559 -0.050000001)
(0.69970542 0.3004559 0.050000001)
(0.69970143 0.30045769 -0.050000001)
(0.69970143 0.30045769 0.050000001)
(0.69969738 0.30045941 -0.050000001)
(0.69969738 0.30045941 0.050000001)
(0.69969338 0.30046111 -0.050000001)
(0.69969338 0.30046111 0.050000001)
(0.69968933 0.30046281 -0.050000001)
(0.69968933 0.30046281 0.050000001)
(0.69968528 0.30046439 -0.050000001)
(0.69968528 0.30046439 0.050000001)
(0.69968122 0.300466 -0.050000001)
(0.69968122 0.300466 0.050000001)
(0.69967723 0.30046761 -0.050000001)
(0.69967723 0.30046761 0.050000001)
(0.69967312 0.3004691 -0.050000001)
(0.69967312 0.3004691 0.050000001)
(0.699669 0.30047059 -0.050000001)
(0.699669 0.30047059 0.050000001)
(0.69966489 0.30047211 -0.050000001)
(0.69966489 0.30047211 0.050000001)
(0.69966072 0.30047351 -0.050000001)
(0.69966072 0.30047351 0.050000001)
(0.69965661 0.30047491 -0.050000001)
(0.69965661 0.30047491 0.050000001)
(0.69965237 0.30047619 -0.050000001)
(0.69965237 0.30047619 0.050000001)
(0.69964832 0.3004775 -0.050000001)
(0.69964832 0.3004775 0.050000001)
(0.69964409 0.30047879 -0.050000001)
(0.69964409 0.30047879 0.050000001)
(0.69963992 0.30048001 -0.050000001)
(0.69963992 0.30048001 0.050000001)
(0.69963568 0.3004812 -0.050000001)
(0.69963568 0.3004812 0.050000001)
(0.69963151 0.30048239 -0.050000001)
(0.69963151 0.30048239 0.050000001)
(0.69962728 0.30048349 -0.050000001)
(0.69962728 0.30048349 0.050000001)
(0.69962311 0.3004846 -0.050000001)
(0.69962311 0.3004846 0.050000001)
(0.69961888 0.3004857 -0.050000001)
(0.69961888 0.3004857 0.050000001)
(0.69961458 0.30048671 -0.050000001)
(0.69961458 0.30048671 0.050000001)
(0.69961041 0.3004877 -0.050000001)
(0.69961041 0.3004877 0.050000001)
(0.69960612 0.30048859 -0.050000001)
(0.69960612 0.30048859 0.050000001)
(0.69960183 0.30048949 -0.050000001)
(0.69960183 0.30048949 0.050000001)
(0.69959748 0.30049041 -0.050000001)
(0.69959748 0.30049041 0.050000001)
(0.69959331 0.30049121 -0.050000001)
(0.69959331 0.30049121 0.050000001)
(0.69958901 0.30049199 -0.050000001)
(0.69958901 0.30049199 0.050000001)
(0.69958472 0.30049279 -0.050000001)
(0.69958472 0.30049279 0.050000001)
(0.69958037 0.30049351 -0.050000001)
(0.69958037 0.30049351 0.050000001)
(0.69957608 0.30049419 -0.050000001)
(0.69957608 0.30049419 0.050000001)
(0.69957179 0.30049479 -0.050000001)
(0.69957179 0.30049479 0.050000001)
(0.69997478 0.2998434 0.050000001)
(0.69997621 0.2998476 -0.050000001)
(0.69997621 0.2998476 0.050000001)
(0.69997752 0.29985169 -0.050000001)
(0.69997752 0.29985169 0.050000001)
(0.69997883 0.29985589 -0.050000001)
(0.69997883 0.29985589 0.050000001)
(0.69998002 0.29986009 -0.050000001)
(0.69998002 0.29986009 0.050000001)
(0.69998121 0.29986429 -0.050000001)
(0.69998121 0.29986429 0.050000001)
(0.6999824 0.29986849 -0.050000001)
(0.6999824 0.29986849 0.050000001)
(0.69998348 0.2998727 -0.050000001)
(0.69998348 0.2998727 0.050000001)
(0.69998461 0.2998769 -0.050000001)
(0.69998461 0.2998769 0.050000001)
(0.69998568 0.29988119 -0.050000001)
(0.69998568 0.29988119 0.050000001)
(0.6999867 0.29988539 -0.050000001)
(0.6999867 0.29988539 0.050000001)
(0.69998759 0.29988971 -0.050000001)
(0.69998759 0.29988971 0.050000001)
(0.6999886 0.29989389 -0.050000001)
(0.6999886 0.29989389 0.050000001)
(0.6999895 0.29989821 -0.050000001)
(0.6999895 0.29989821 0.050000001)
(0.69999039 0.2999025 -0.050000001)
(0.69999039 0.2999025 0.050000001)
(0.69999123 0.2999067 -0.050000001)
(0.69999123 0.2999067 0.050000001)
(0.699992 0.29991099 -0.050000001)
(0.699992 0.29991099 0.050000001)
(0.69999278 0.29991531 -0.050000001)
(0.69999278 0.29991531 0.050000001)
(0.69999349 0.29991961 -0.050000001)
(0.69999349 0.29991961 0.050000001)
(0.69999421 0.2999239 -0.050000001)
(0.69999421 0.2999239 0.050000001)
(0.6999948 0.29992819 -0.050000001)
(0.6999948 0.29992819 0.050000001)
(0.69999552 0.2999326 -0.050000001)
(0.69999552 0.2999326 0.050000001)
(0.69999599 0.29993689 -0.050000001)
(0.69999599 0.29993689 0.050000001)
(0.69999647 0.29994121 -0.050000001)
(0.69999647 0.29994121 0.050000001)
(0.69999701 0.29994559 -0.050000001)
(0.69999701 0.29994559 0.050000001)
(0.69999748 0.29994991 -0.050000001)
(0.69999748 0.29994991 0.050000001)
(0.6999979 0.2999543 -0.050000001)
(0.6999979 0.2999543 0.050000001)
(0.69999832 0.29995859 -0.050000001)
(0.69999832 0.29995859 0.050000001)
(0.69999862 0.29996291 -0.050000001)
(0.69999862 0.29996291 0.050000001)
(0.69999892 0.29996729 -0.050000001)
(0.69999892 0.29996729 0.050000001)
(0.69999921 0.29997161 -0.050000001)
(0.69999921 0.29997161 0.050000001)
(0.69999951 0.29997599 -0.050000001)
(0.69999951 0.29997599 0.050000001)
(0.69999957 0.2999804 -0.050000001)
(0.69999957 0.2999804 0.050000001)
(0.69999969 0.29998469 -0.050000001)
(0.69999969 0.29998469 0.050000001)
(0.69999993 0.2999891 -0.050000001)
(0.69999993 0.2999891 0.050000001)
(0.69999993 0.29999349 -0.050000001)
(0.69999993 0.29999349 0.050000001)
(0.69999999 0.29999781 -0.050000001)
(0.69999999 0.29999781 0.050000001)
(0.69999999 0.30000219 -0.050000001)
(0.69999999 0.30000219 0.050000001)
(0.69999993 0.30000651 -0.050000001)
(0.69999993 0.30000651 0.050000001)
(0.69999993 0.30001089 -0.050000001)
(0.69999993 0.30001089 0.050000001)
(0.69999969 0.3000153 -0.050000001)
(0.69999969 0.3000153 0.050000001)
(0.69999957 0.30001959 -0.050000001)
(0.69999957 0.30001959 0.050000001)
(0.69999951 0.300024 -0.050000001)
(0.69999951 0.300024 0.050000001)
(0.69999921 0.30002841 -0.050000001)
(0.69999921 0.30002841 0.050000001)
(0.69999892 0.30003271 -0.050000001)
(0.69999892 0.30003271 0.050000001)
(0.69999862 0.30003709 -0.050000001)
(0.69999862 0.30003709 0.050000001)
(0.69999832 0.30004141 -0.050000001)
(0.69999832 0.30004141 0.050000001)
(0.6999979 0.30004579 -0.050000001)
(0.6999979 0.30004579 0.050000001)
(0.69999748 0.30005011 -0.050000001)
(0.69999748 0.30005011 0.050000001)
(0.69999701 0.3000544 -0.050000001)
(0.69999701 0.3000544 0.050000001)
(0.69999647 0.30005881 -0.050000001)
(0.69999647 0.30005881 0.050000001)
(0.69999599 0.3000631 -0.050000001)
(0.69999599 0.3000631 0.050000001)
(0.69999552 0.30006739 -0.050000001)
(0.69999552 0.30006739 0.050000001)
(0.6999948 0.30007169 -0.050000001)
(0.6999948 0.30007169 0.050000001)
(0.69999421 0.3000761 -0.050000001)
(0.69999421 0.3000761 0.050000001)
(0.69999349 0.30008039 -0.050000001)
(0.69999349 0.30008039 0.050000001)
(0.69999278 0.30008471 -0.050000001)
(0.69999278 0.30008471 0.050000001)
(0.699992 0.300089 -0.050000001)
(0.699992 0.300089 0.050000001)
(0.69999123 0.30009329 -0.050000001)
(0.69999123 0.30009329 0.050000001)
(0.69999039 0.30009761 -0.050000001)
(0.69999039 0.30009761 0.050000001)
(0.6999895 0.30010179 -0.050000001)
(0.6999895 0.30010179 0.050000001)
(0.6999886 0.30010611 -0.050000001)
(0.6999886 0.30010611 0.050000001)
(0.69998759 0.30011031 -0.050000001)
(0.69998759 0.30011031 0.050000001)
(0.6999867 0.3001146 -0.050000001)
(0.6999867 0.3001146 0.050000001)
(0.69998568 0.3001188 -0.050000001)
(0.69998568 0.3001188 0.050000001)
(0.69998461 0.3001231 -0.050000001)
(0.69998461 0.3001231 0.050000001)
(0.69998348 0.3001273 -0.050000001)
(0.69998348 0.3001273 0.050000001)
(0.6999824 0.3001315 -0.050000001)
(0.6999824 0.3001315 0.050000001)
(0.69998121 0.3001357 -0.050000001)
(0.69998121 0.3001357 0.050000001)
(0.69998002 0.3001399 -0.050000001)
(0.69998002 0.3001399 0.050000001)
(0.69997883 0.30014411 -0.050000001)
(0.69997883 0.30014411 0.050000001)
(0.69997752 0.30014831 -0.050000001)
(0.69997752 0.30014831 0.050000001)
(0.69997621 0.30015239 -0.050000001)
(0.69997621 0.30015239 0.050000001)
(0.69997478 0.30015659 -0.050000001)
(0.69997478 0.30015659 0.050000001)
(0.69997352 0.30016071 -0.050000001)
(0.69997352 0.30016071 0.050000001)
(0.69997197 0.30016479 -0.050000001)
(0.69997197 0.30016479 0.050000001)
(0.6999706 0.30016899 -0.050000001)
(0.6999706 0.30016899 0.050000001)
(0.69996911 0.30017301 -0.050000001)
(0.69996911 0.30017301 0.050000001)
(0.69996762 0.3001771 -0.050000001)
(0.69996762 0.3001771 0.050000001)
(0.69996601 0.30018121 -0.050000001)
(0.69996601 0.30018121 0.050000001)
(0.6999644 0.30018529 -0.050000001)
(0.6999644 0.30018529 0.050000001)
(0.69996279 0.30018929 -0.050000001)
(0.69996279 0.30018929 0.050000001)
(0.69996113 0.30019331 -0.050000001)
(0.69996113 0.30019331 0.050000001)
(0.6999594 0.30019739 -0.050000001)
(0.6999594 0.30019739 0.050000001)
(0.69995773 0.30020139 -0.050000001)
(0.69995773 0.30020139 0.050000001)
(0.69995588 0.30020529 -0.050000001)
(0.69995588 0.30020529 0.050000001)
(0.69995409 0.30020931 -0.050000001)
(0.69995409 0.30020931 0.050000001)
(0.69995219 0.30021331 -0.050000001)
(0.69995219 0.30021331 0.050000001)
(0.69995028 0.30021721 -0.050000001)
(0.69995028 0.30021721 0.050000001)
(0.69994837 0.30022109 -0.050000001)
(0.69994837 0.30022109 0.050000001)
(0.69994652 0.30022499 -0.050000001)
(0.69994652 0.30022499 0.050000001)
(0.6999445 0.30022889 -0.050000001)
(0.6999445 0.30022889 0.050000001)
(0.69994253 0.3002328 -0.050000001)
(0.69994253 0.3002328 0.050000001)
(0.69994038 0.30023661 -0.050000001)
(0.69994038 0.30023661 0.050000001)
(0.69993842 0.30024049 -0.050000001)
(0.69993842 0.30024049 0.050000001)
(0.69993627 0.3002443 -0.050000001)
(0.69993627 0.3002443 0.050000001)
(0.69993412 0.30024809 -0.050000001)
(0.69993412 0.30024809 0.050000001)
(0.69993192 0.3002519 -0.050000001)
(0.69993192 0.3002519 0.050000001)
(0.69992971 0.3002556 -0.050000001)
(0.69992971 0.3002556 0.050000001)
(0.69992739 0.30025941 -0.050000001)
(0.69992739 0.30025941 0.050000001)
(0.69992518 0.30026311 -0.050000001)
(0.69992518 0.30026311 0.050000001)
(0.69992292 0.3002668 -0.050000001)
(0.69992292 0.3002668 0.050000001)
(0.69992048 0.3002705 -0.050000001)
(0.69992048 0.3002705 0.050000001)
(0.69991821 0.3002741 -0.050000001)
(0.69991821 0.3002741 0.050000001)
(0.69991583 0.3002778 -0.050000001)
(0.69991583 0.3002778 0.050000001)
(0.69991332 0.30028141 -0.050000001)
(0.69991332 0.30028141 0.050000001)
(0.69991082 0.30028501 -0.050000001)
(0.69991082 0.30028501 0.050000001)
(0.69990832 0.30028859 -0.050000001)
(0.69990832 0.30028859 0.050000001)
(0.69990581 0.3002921 -0.050000001)
(0.69990581 0.3002921 0.050000001)
(0.69990319 0.30029571 -0.050000001)
(0.69990319 0.30029571 0.050000001)
(0.69990063 0.3002992 -0.050000001)
(0.69990063 0.3002992 0.050000001)
(0.699898 0.30030271 -0.050000001)
(0.699898 0.30030271 0.050000001)
(0.69989532 0.30030611 -0.050000001)
(0.69989532 0.30030611 0.050000001)
(0.69989258 0.30030951 -0.050000001)
(0.69989258 0.30030951 0.050000001)
(0.69989002 0.300313 -0.050000001)
(0.69989002 0.300313 0.050000001)
(0.69988722 0.3003163 -0.050000001)
(0.69988722 0.3003163 0.050000001)
(0.69988441 0.3003197 -0.050000001)
(0.69988441 0.3003197 0.050000001)
(0.69988161 0.3003231 -0.050000001)
(0.69988161 0.3003231 0.050000001)
(0.69987881 0.30032641 -0.050000001)
(0.69987881 0.30032641 0.050000001)
(0.69987601 0.30032969 -0.050000001)
(0.69987601 0.30032969 0.050000001)
(0.69987297 0.3003329 -0.050000001)
(0.69987297 0.3003329 0.050000001)
(0.69987011 0.30033621 -0.050000001)
(0.69987011 0.30033621 0.050000001)
(0.69986719 0.3003394 -0.050000001)
(0.69986719 0.3003394 0.050000001)
(0.69986421 0.30034259 -0.050000001)
(0.69986421 0.30034259 0.050000001)
(0.69986123 0.30034569 -0.050000001)