/*--------------------------------*- C++ -*----------------------------------*\
| =========                 |                                                 |
| \\      /  F ield         | OpenFOAM: The Open Source CFD Toolbox           |
|  \\    /   O peration     | Version:  v1906                                 |
|   \\  /    A nd           | Web:      www.OpenFOAM.com                      |
|    \\/     M anipulation  |                                                 |
\*---------------------------------------------------------------------------*/
FoamFile
{
    version     2.0;
    format      ascii;
    class       dictionary;
    object      blockMeshDict;
}
// * * * * * * * * * * * * * * * * * * * * * * * * * * * * * * * * * * * * * //

convertToMeters 1;

vertices
(
    (0 0 -0.01)	//0
    (1.3 0 -0.01)	//1
    (1.3 0.6 -0.01)	//2
    (0 0.6 -0.01)	//3

    (0 0 0.01)	//4
    (1.3 0 0.01)	//5
    (1.3 0.6 0.01)	//6
    (0 0.6 0.01)	//7
);

blocks
(
    hex (0 1 2 3 4 5 6 7) (130 60 1)
	
    simpleGrading (1 1 1)
);

edges
(
);

boundary
(
	walls
	{
		type walls;
		faces
		(
			(4 5 1 0)
			(7 6 2 3)
		);
	}
	front
	{
		type symmetryPlane;
		faces
		(
			(0 1 2 3)
		);
	}
	back
	{
		type symmetryPlane;
		faces
		(
			(4 5 6 7)
		);
	}
	inlet
	{
		type patch;
		faces
		(
			(0 4 7 3)
		);
	}
	outlet
	{
		type patch;
		faces
		(
			(1 5 6 2)
		);
	}
);

mergePatchPairs
(
);

// ************************************************************************* //
