/*--------------------------------*- C++ -*----------------------------------*\
| =========                 |                                                 |
| \\      /  F ield         | OpenFOAM: The Open Source CFD Toolbox           |
|  \\    /   O peration     | Version:  v1906                                 |
|   \\  /    A nd           | Web:      www.OpenFOAM.com                      |
|    \\/     M anipulation  |                                                 |
\*---------------------------------------------------------------------------*/
FoamFile
{
    version     2.0;
    format      ascii;
    class       polyBoundaryMesh;
    location    "constant/polyMesh";
    object      boundary;
}
// * * * * * * * * * * * * * * * * * * * * * * * * * * * * * * * * * * * * * //

7
(
    walls
    {
        type            walls;
        nFaces          260;
        startFace       179403;
        faces           ( ( 4 5 1 0 ) ( 7 6 2 3 ) );
    }
    inlet
    {
        type            patch;
        nFaces          60;
        startFace       179663;
    }
    outlet
    {
        type            patch;
        nFaces          152;
        startFace       179723;
    }
    naca0012
    {
        type            wall;
        inGroups        1(wall);
        nFaces          648;
        startFace       179875;
    }
    elipse
    {
        type            wall;
        inGroups        1(wall);
        nFaces          164;
        startFace       180523;
    }
    front_n
    {
        type            empty;
        inGroups        1(empty);
        nFaces          89014;
        startFace       180687;
    }
    back_n
    {
        type            empty;
        inGroups        1(empty);
        nFaces          89014;
        startFace       269701;
    }
)

// ************************************************************************* //
