/*--------------------------------*- C++ -*----------------------------------*\
| =========                 |                                                 |
| \\      /  F ield         | OpenFOAM: The Open Source CFD Toolbox           |
|  \\    /   O peration     | Version:  v1906                                 |
|   \\  /    A nd           | Web:      www.OpenFOAM.com                      |
|    \\/     M anipulation  |                                                 |
\*---------------------------------------------------------------------------*/
FoamFile
{
    version     2.0;
    format      ascii;
    class       dictionary;
    object      snappyHexMeshDict;
}
// * * * * * * * * * * * * * * * * * * * * * * * * * * * * * * * * * * * * * //

#includeEtc "caseDicts/mesh/generation/snappyHexMeshDict.cfg"

castellatedMesh on;
snap            on;
addLayers       on;

geometry
{
    naca0012.stl
    {
        type triSurfaceMesh;
        name naca0012;
    }
	
	elipse.stl
	{ 	
		type triSurfaceMesh;
		name elipse;
	}
	
	cone
	{
		type            searchableCone;
		point1          (0.470 0.3 0);
		radius1         0.03;
		innerRadius1    0.001;
		point2          (1.3 0.3 0);
		radius2         0.1;
		innerRadius2    0.001;
	}

	box2
	{
		type 		searchableBox;
		min			(0.51  0.298 -0.01);
		max 		(1.3 0.302  0.01);
	}

	box1
	{
		type 		searchableBox;
		min 		(0.48  0.29 -0.01);
		max			(1.3 0.31  0.01);	
	}
};

castellatedMeshControls
{
    features
    (
		{
         	file "naca0012.eMesh";
        	level 6;
        }

		{
			file "elipse.eMesh";
			level 6;
		}
    );

    refinementSurfaces
    {
        naca0012
        {
            level (6 6);
            patchInfo { type wall; }
        }
		
		elipse
		{
			level (6 6);
			patchInfo { type wall; }
		}
    }
	
    refinementRegions
    {
        cone
        {
            mode inside;
            levels ((1E15 2));
        }
	
		box1
		{
			mode inside;
			levels ((1E15 4));
		}
		
		box2
		{
			mode inside;
			levels ((1E15 6));
		}
    }

    locationInMesh (0.0001 0.0001 0); // Offset from (0 0 0) to avoid
                                     // coinciding with face or edge
    nCellsBetweenLevels 5;
	
	// Resolve sharp angles
    resolveFeatureAngle 15;
}

snapControls
{
	//- Number of mesh displacement relaxation iterations.
	nSolveIter 30;
	
	//- Number of feature edge snapping iterations.
	//  Leave out altogether to disable.
	//nFeatureSnapIter 15;
//  explicitFeatureSnap    true;
//  implicitFeatureSnap    false;
}

addLayersControls
{
    layers
    {
        "naca0012.*"
        {
            nSurfaceLayers 12;
        }
		
		"elipse.*"
		{
			nSurfaceLayers 12;
		}
    }

    relativeSizes       true; // false, usually with firstLayerThickness
    expansionRatio      1.1;
    finalLayerThickness 0.7;
    minThickness        1e-5;
//  firstLayerThickness 0.01;

//  maxThicknessToMedialRatio 0.6;
}

meshQualityControls
{
    minTetQuality -1e+30;
}

writeFlags
(
//    scalarLevels
    layerSets
    layerFields
);

mergeTolerance 1e-6;

// ************************************************************************* //
