/*--------------------------------*- C++ -*----------------------------------*\
| =========                 |                                                 |
| \\      /  F ield         | OpenFOAM: The Open Source CFD Toolbox           |
|  \\    /   O peration     | Version:  v1712                                 |
|   \\  /    A nd           | Web:      www.OpenFOAM.com                      |
|    \\/     M anipulation  |                                                 |
\*---------------------------------------------------------------------------*/
FoamFile
{
    version     2.0;
    format      ascii;
    class       volScalarField;
    location    "0";
    object      nut;
}
// * * * * * * * * * * * * * * * * * * * * * * * * * * * * * * * * * * * * * //

dimensions      [ 0 2 -1 0 0 0 0 ];

internalField   uniform 0.0002678;

boundaryField
{
    walls
    {
        type            freestream;
        freestreamValue uniform 0.0002678;
    }
	
    naca0012
    {
        type            nutUSpaldingWallFunction;
        value           uniform 0;
    }
    elipse
    {
        type            nutUSpaldingWallFunction;
        value           uniform 0;
    }
    inlet
    {
        type            freestream;
        freestreamValue uniform 0.0002678;
    }
    outlet
    {
        type            zeroGradient;
    }
    front_n
    {
        type            empty;
    }
	back_n
    {
        type            empty;
    }
}


// ************************************************************************* //
