/*--------------------------------*- C++ -*----------------------------------*\
| =========                 |                                                 |
| \\      /  F ield         | OpenFOAM: The Open Source CFD Toolbox           |
|  \\    /   O peration     | Version:  v1712                                 |
|   \\  /    A nd           | Web:      www.OpenFOAM.com                      |
|    \\/     M anipulation  |                                                 |
\*---------------------------------------------------------------------------*/
FoamFile
{
    version     2.0;
    format      ascii;
    class       volVectorField;
    location    "0";
    object      U;
}
// * * * * * * * * * * * * * * * * * * * * * * * * * * * * * * * * * * * * * //

dimensions      [ 0 1 -1 0 0 0 0 ];

internalField   uniform (72 0 0 );

boundaryField
{
	
	walls
    {
        type            freestreamVelocity;
        freestreamValue $internalField;
    }
	
    front_n
    {
        type            empty;
    }
	
    back_n
    {
        type            empty;
    }
	
    inlet
    {
        type            freestreamVelocity;
        freestreamValue $internalField;
    }
	
    outlet
    {
        type            zeroGradient;
    }
	
    naca0012
    {
        type            noSlip;
    }
	
    elipse
    {
        type            noSlip;
    }
	
}


// ************************************************************************* //
