/*--------------------------------*- C++ -*----------------------------------*\
| =========                 |                                                 |
| \\      /  F ield         | OpenFOAM: The Open Source CFD Toolbox           |
|  \\    /   O peration     | Version:  v1712                                 |
|   \\  /    A nd           | Web:      www.OpenFOAM.com                      |
|    \\/     M anipulation  |                                                 |
\*---------------------------------------------------------------------------*/
FoamFile
{
    version     2.0;
    format      ascii;
    class       volVectorField;
    location    "0";
    object      Ua;
}
// * * * * * * * * * * * * * * * * * * * * * * * * * * * * * * * * * * * * * //

dimensions      [ 0 1 -1 0 0 0 0 ];

internalField   uniform ( 0 0 0 );

boundaryField
{
	
	walls
    {
        type            adjointFarFieldVelocity;
        value           uniform ( 0 0 0 );
    }
	
    front_n
    {
        type            empty;
    }
	
    back_n
    {
        type            empty;
    }
	
    inlet
    {
        type            adjointInletVelocity;
        value           uniform ( 0 0 0 );
    }
	
    outlet
    {
        type            adjointOutletVelocity;
        value           uniform ( 0 0 0 );
    }
	
    naca0012
    {
        type            adjointWallVelocity;
        value           uniform ( 0 0 0 );
    }
	
    elipse
    {
        type            adjointWallVelocity;
        value           uniform ( 0 0 0 );
    }
	
}


// ************************************************************************* //
