/*--------------------------------*- C++ -*----------------------------------*\
| =========                 |                                                 |
| \\      /  F ield         | OpenFOAM: The Open Source CFD Toolbox           |
|  \\    /   O peration     | Version:  v1906                                 |
|   \\  /    A nd           | Web:      www.OpenFOAM.com                      |
|    \\/     M anipulation  |                                                 |
\*---------------------------------------------------------------------------*/
FoamFile
{
    version     2.0;
    format      ascii;
    class       dictionary;
    location    "system";
    object      fvSchemes;
}
// * * * * * * * * * * * * * * * * * * * * * * * * * * * * * * * * * * * * * //

ddtSchemes
{
    default         steadyState;
}

gradSchemes
{
    default         Gauss linear;
	gradUConv		cellLimited Gauss linear 1;
}

divSchemes
{
    default                        Gauss linear;
	
    div(phi,U)                     bounded Gauss upwind;  // Gauss upwind;
	div(phi,nuTilda)               bounded Gauss upwind;  // Gauss linearUpwind gradUConv;
	
	div(-phi,Ua)                   bounded Gauss upwind;  // Gauss upwind;
	div(-phi,nuaTilda)             bounded Gauss upwind;  // Gauss linearUpwind gradUConv;
	
	div((nuEff*dev(grad(U).T())))  Gauss linear;
    div((nuEff*dev(grad(Ua).T()))) Gauss linear;
}

laplacianSchemes
{
    default         Gauss linear corrected;
}

interpolationSchemes
{
    default         linear;
}

snGradSchemes
{
    default         corrected;
}

fluxRequired
{
    default         no;
    p               ;
}

wallDist
{
    method meshWave;
}


// ************************************************************************* //
