/*--------------------------------*- C++ -*----------------------------------*\
| =========                 |                                                 |
| \\      /  F ield         | OpenFOAM: The Open Source CFD Toolbox           |
|  \\    /   O peration     | Version:  v2006                                 |
|   \\  /    A nd           | Website:  www.openfoam.com                      |
|    \\/     M anipulation  |                                                 |
\*---------------------------------------------------------------------------*/
FoamFile
{
    version     2.0;
    format      ascii;
    class       dictionary;
    object      optimisationDict;
}
// * * * * * * * * * * * * * * * * * * * * * * * * * * * * * * * * * * * * * //

optimisationManager     steadyOptimisation;

primalSolvers
{
    p1
    {
        active                 true;
        type                   incompressible;
        solver                 simple;
        solutionControls
        {
            nIters 5000;
            residualControl
            {
                "p.*"       10.e-5;
                "U.*"       1.e-5;
				"nuTilda."	1.e-4;
            }
        }
    }
}

adjointManagers
{
    am1
    {
        primalSolver             p1;
        adjointSolvers
        {
            as1
            {
                // choose adjoint solver
                //----------------------
                active                 true;
                type                   incompressible;
                solver                 adjointSimple;

                // manage objectives
                //------------------
                objectives
                {
                    type                incompressible;
                    objectiveNames
                    {
                        drag
                        {
                            weight          1;
                            type            force;
                            patches         (naca0012);
							direction 		(1 0 0);
							Aref 			2.;
							rhoInf			1.225;
							UInf			1;
                        }
                    }
                }
                // ATC treatment
                //--------------
                ATCModel
                {
                    ATCModel        standard;
                }
                // solution control
                //------------------
                solutionControls
                {
                    nIters 5000;
                    residualControl
                    {
                        "pa.*"       1.e-5;
                        "Ua.*"       1.e-5;
                    }
                }
            }
        }
    }
}

optimisation
{
    optimisationType
    {
        type             shapeOptimisation;
        writeEachMesh    true;
    }

    sensitivities
    {
        type            volumetricBSplinesFI;
        patches         (elipse);
    }

    updateMethod
    {
        method  steepestDescent;
    }

    meshMovement
    {
        type                   volumetricBSplines;
        maxAllowedDisplacement 1.e-4;
    }
}

// ************************************************************************* //
